data_VESTA_phase_1
_audit_creation_method         'generated by CrystalMaker X for macOS'
_cell_length_a                   6.300000
_cell_length_b                   6.300000
_cell_length_c                   6.300000
_cell_angle_alpha               90.000000
_cell_angle_beta                90.000000
_cell_angle_gamma               90.000000

_symmetry_space_group_name_H-M     'P 1'

loop_
_symmetry_equiv_pos_as_xyz
'+x,+y,+z'

loop_
_atom_site_label
_atom_site_type_symbol
_atom_site_occupancy
_atom_site_fract_x
_atom_site_fract_y
_atom_site_fract_z
_atom_site_U_iso_or_equiv
 C1  C 1.0  0.500001  0.569011  0.5  0.01267
 H1  H 1.0  0.5  0.741416  0.5  0.01267
 H2  H 1.0  0.814009  0.56763  0.5  0.01267
 H3  H 1.0  0.704462  0.31528  0.5  0.01267
 H4  H 1.0  0.295538  0.31528  0.5  0.01267
 H5  H 1.0  0.185991  0.56763  0.5  0.01267
 I1  I 1.0  0.5  0.0  0.0  0.01267
 I2  I 1.0  0.0  0.5  0.0  0.01267
 I3  I 1.0  0.0  0.0  0.5  0.01267
 N1  N 1.0  0.682927  0.47528  0.5  0.01267
 N2  N 1.0  0.317071  0.47528  0.5  0.01267
 Pb1  Pb 1.0  0.0  0.0  0.0  0.01267

