 
data_shelxl
 
_audit_creation_method            'SHELXL-2016/4'
_shelx_SHELXL_version_number      '2016/4'
_chemical_name_systematic         ?
_chemical_name_common             ?
_chemical_melting_point           ?
_chemical_formula_moiety          ?
_chemical_formula_sum
 'C Br0.45 I2.55 N2 Pb' 
_chemical_formula_weight          606.77

loop_
 _atom_type_symbol
 _atom_type_description
 _atom_type_scat_dispersion_real
 _atom_type_scat_dispersion_imag
 _atom_type_scat_source
 'I'  'I'  -0.4742   1.8119
 'International Tables Vol C Tables 4.2.6.8 and 6.1.1.4'
 'Pb'  'Pb'  -3.3944  10.1111
 'International Tables Vol C Tables 4.2.6.8 and 6.1.1.4'
 'N'  'N'   0.0061   0.0033
 'International Tables Vol C Tables 4.2.6.8 and 6.1.1.4'
 'C'  'C'   0.0033   0.0016
 'International Tables Vol C Tables 4.2.6.8 and 6.1.1.4'
 'Br'  'Br'  -0.2901   2.4595
 'International Tables Vol C Tables 4.2.6.8 and 6.1.1.4'
 
_space_group_crystal_system       hexagonal
_space_group_IT_number            194
_space_group_name_H-M_alt         'P 63/m m c'
_space_group_name_Hall            '-P 6c 2c'
 
_shelx_space_group_comment
;
The symmetry employed for this shelxl refinement is uniquely defined
by the following loop, which should always be used as a source of
symmetry information in preference to the above space-group names.
They are only intended as comments.
;
 
loop_
 _space_group_symop_operation_xyz
 'x, y, z'
 'x-y, x, z+1/2'
 'y, -x+y, z+1/2'
 '-y, x-y, z'
 '-x+y, -x, z'
 'x-y, -y, -z'
 '-x, -x+y, -z'
 '-x, -y, z+1/2'
 'y, x, -z'
 '-y, -x, -z+1/2'
 '-x+y, y, -z+1/2'
 'x, x-y, -z+1/2'
 '-x, -y, -z'
 '-x+y, -x, -z-1/2'
 '-y, x-y, -z-1/2'
 'y, -x+y, -z'
 'x-y, x, -z'
 '-x+y, y, z'
 'x, x-y, z'
 'x, y, -z-1/2'
 '-y, -x, z'
 'y, x, z-1/2'
 'x-y, -y, z-1/2'
 '-x, -x+y, z-1/2'
 
_cell_length_a                    8.8136(5)
_cell_length_b                    8.8136(5)
_cell_length_c                    15.2076(11)
_cell_angle_alpha                 90
_cell_angle_beta                  90
_cell_angle_gamma                 120
_cell_volume                      1023.05(14)
_cell_formula_units_Z             4
_cell_measurement_temperature     299(2)
_cell_measurement_reflns_used     4459
_cell_measurement_theta_min       2.67
_cell_measurement_theta_max       26.39
 
_exptl_crystal_description        block
_exptl_crystal_colour             orange
_exptl_crystal_density_meas       ?
_exptl_crystal_density_method     ?
_exptl_crystal_density_diffrn     3.939          
_exptl_crystal_F_000              1012
_exptl_transmission_factor_min    0.78
_exptl_transmission_factor_max    1
_exptl_crystal_size_max           ?
_exptl_crystal_size_mid           ?
_exptl_crystal_size_min           ?
_exptl_absorpt_coefficient_mu     25.869
_shelx_estimated_absorpt_T_min    ?
_shelx_estimated_absorpt_T_max    ?
_exptl_absorpt_correction_type    ?
_exptl_absorpt_correction_T_min   ?
_exptl_absorpt_correction_T_max   ?
_exptl_absorpt_process_details    ?
_exptl_absorpt_special_details    ?
_diffrn_ambient_temperature       299(2)
_diffrn_radiation_wavelength      0.71073
_diffrn_radiation_type            MoK\a
_diffrn_radiation_source          'fine-focus sealed tube' 
_diffrn_radiation_monochromator   graphite 
_diffrn_measurement_device_type   'Bruker APEX-II CCD'
_diffrn_measurement_method        '\f and \w scans'
_diffrn_detector_area_resol_mean  ?
_diffrn_reflns_number             4459
_diffrn_reflns_av_unetI/netI      0.0222
_diffrn_reflns_av_R_equivalents   0.0427
_diffrn_reflns_limit_h_min        -10
_diffrn_reflns_limit_h_max        10
_diffrn_reflns_limit_k_min        -11
_diffrn_reflns_limit_k_max        11
_diffrn_reflns_limit_l_min        -19
_diffrn_reflns_limit_l_max        16
_diffrn_reflns_theta_min          2.669
_diffrn_reflns_theta_max          26.387
_diffrn_reflns_theta_full         25.000
_diffrn_measured_fraction_theta_max   1.000
_diffrn_measured_fraction_theta_full  1.000
_diffrn_reflns_Laue_measured_fraction_max    1.000
_diffrn_reflns_Laue_measured_fraction_full   1.000
_diffrn_reflns_point_group_measured_fraction_max   1.000
_diffrn_reflns_point_group_measured_fraction_full  1.000
_reflns_number_total              435
_reflns_number_gt                 360
_reflns_threshold_expression      'I > 2\s(I)'
_reflns_Friedel_coverage          0.000
_reflns_Friedel_fraction_max      .
_reflns_Friedel_fraction_full     .
 
_reflns_special_details
;
 Reflections were merged by SHELXL according to the crystal
 class for the calculation of statistics and refinement.
 
 _reflns_Friedel_fraction is defined as the number of unique
 Friedel pairs measured divided by the number that would be
 possible theoretically, ignoring centric projections and
 systematic absences.
;
 
_computing_data_collection        ?
_computing_cell_refinement        ?
_computing_data_reduction         ?
_computing_structure_solution     'SHELXT 2014/5 (Sheldrick, 2014)'
_computing_structure_refinement 'SHELXL-2016/4 (Sheldrick, 2016)'
_computing_molecular_graphics     ?
_computing_publication_material   ?
_refine_special_details           ?
_refine_ls_structure_factor_coef  Fsqd
_refine_ls_matrix_type            full
_refine_ls_weighting_scheme       calc
_refine_ls_weighting_details
'w=1/[\s^2^(Fo^2^)+(0.0556P)^2^] where P=(Fo^2^+2Fc^2^)/3'
_atom_sites_solution_primary      ?
_atom_sites_solution_secondary    ?
_atom_sites_solution_hydrogens    .
_refine_ls_hydrogen_treatment     undef
_refine_ls_extinction_method      'SHELXL-2016/4 (Sheldrick 2016)'
_refine_ls_extinction_coef        0.0016(3)
_refine_ls_extinction_expression
 'Fc^*^=kFc[1+0.001xFc^2^\l^3^/sin(2\q)]^-1/4^'
_refine_ls_number_reflns          435
_refine_ls_number_parameters      25
_refine_ls_number_restraints      2
_refine_ls_R_factor_all           0.0376
_refine_ls_R_factor_gt            0.0265
_refine_ls_wR_factor_ref          0.0788
_refine_ls_wR_factor_gt           0.0741
_refine_ls_goodness_of_fit_ref    1.011
_refine_ls_restrained_S_all       1.012
_refine_ls_shift/su_max           0.000
_refine_ls_shift/su_mean          0.000
 
loop_
 _atom_site_label
 _atom_site_type_symbol
 _atom_site_fract_x
 _atom_site_fract_y
 _atom_site_fract_z
 _atom_site_U_iso_or_equiv
 _atom_site_adp_type
 _atom_site_occupancy
 _atom_site_site_symmetry_order  
 _atom_site_calc_flag
 _atom_site_refinement_flags_posn
 _atom_site_refinement_flags_adp
 _atom_site_refinement_flags_occupancy
 _atom_site_disorder_assembly
 _atom_site_disorder_group
PB1 Pb 0.333333 0.666667 0.37988(4) 0.0505(3) Uani 1 6 d S T P . .
I1 I 0.500000 1.000000 0.500000 0.1138(7) Uani 0.723(14) 4 d S T P . .
I2 I 0.16848(5) 0.83152(5) 0.250000 0.0726(5) Uani 0.932(14) 4 d S T P . .
BR1 Br 0.500000 1.000000 0.500000 0.1138(7) Uani 0.277(14) 4 d S T P . .
BR2 Br 0.16848(5) 0.83152(5) 0.250000 0.0726(5) Uani 0.068(14) 4 d S T P . .
C1 C 0.000000 1.000000 0.500000 0.31(7) Uani 1 12 d DS T P . .
C2 C 0.333333 0.666667 0.750000 0.20(3) Uani 1 12 d DS T P . .
N1 N 0.000000 1.000000 0.4096(13) 0.36(4) Uani 1 6 d DS T P . .
N2 N 0.333333 0.666667 0.6592(13) 0.37(5) Uani 1 6 d DS T P . .
 
loop_
 _atom_site_aniso_label
 _atom_site_aniso_U_11
 _atom_site_aniso_U_22
 _atom_site_aniso_U_33
 _atom_site_aniso_U_23
 _atom_site_aniso_U_13
 _atom_site_aniso_U_12
PB1 0.0539(4) 0.0539(4) 0.0438(4) 0.000 0.000 0.02697(18)
I1 0.1403(12) 0.0751(8) 0.1043(12) -0.0478(7) -0.0239(4) 0.0375(4)
I2 0.0876(7) 0.0876(7) 0.0729(8) 0.000 0.000 0.0665(7)
BR1 0.1403(12) 0.0751(8) 0.1043(12) -0.0478(7) -0.0239(4) 0.0375(4)
BR2 0.0876(7) 0.0876(7) 0.0729(8) 0.000 0.000 0.0665(7)
C1 0.39(11) 0.39(11) 0.15(8) 0.000 0.000 0.19(5)
C2 0.21(5) 0.21(5) 0.17(7) 0.000 0.000 0.11(2)
N1 0.29(5) 0.29(5) 0.51(12) 0.000 0.000 0.14(3)
N2 0.39(7) 0.39(7) 0.32(8) 0.000 0.000 0.20(3)
 
_geom_special_details
;
 All esds (except the esd in the dihedral angle between two l.s. planes)
 are estimated using the full covariance matrix.  The cell esds are taken
 into account individually in the estimation of esds in distances, angles
 and torsion angles; correlations between esds in cell parameters are only
 used when they are defined by crystal symmetry.  An approximate (isotropic)
 treatment of cell esds is used for estimating esds involving l.s. planes.
;
 
loop_
 _geom_bond_atom_site_label_1
 _geom_bond_atom_site_label_2
 _geom_bond_distance
 _geom_bond_site_symmetry_2
 _geom_bond_publ_flag
PB1 I1 3.1322(4) . ?
PB1 BR1 3.1322(4) 4_665 ?
PB1 I1 3.1322(4) 4_665 ?
PB1 BR1 3.1322(4) 5_565 ?
PB1 I1 3.1322(4) 5_565 ?
PB1 I2 3.1991(7) . ?
PB1 BR2 3.1991(7) 15_666 ?
PB1 I2 3.1991(7) 15_666 ?
PB1 I2 3.1991(7) 14_566 ?
PB1 BR2 3.1991(7) 14_566 ?
I1 PB1 3.1322(4) 13_676 ?
I2 PB1 3.1992(7) 14_566 ?
C1 N1 1.37(2) 13_576 ?
C1 N1 1.37(2) . ?
C2 N2 1.38(2) . ?
C2 N2 1.38(2) 14_567 ?
 
loop_
 _geom_angle_atom_site_label_1
 _geom_angle_atom_site_label_2
 _geom_angle_atom_site_label_3
 _geom_angle
 _geom_angle_site_symmetry_1
 _geom_angle_site_symmetry_3
 _geom_angle_publ_flag
I1 PB1 BR1 89.4 . 4_665 ?
I1 PB1 I1 89.413(12) . 4_665 ?
BR1 PB1 I1 0.0 4_665 4_665 ?
I1 PB1 BR1 89.4 . 5_565 ?
BR1 PB1 BR1 89.413(12) 4_665 5_565 ?
I1 PB1 BR1 89.413(12) 4_665 5_565 ?
I1 PB1 I1 89.413(12) . 5_565 ?
BR1 PB1 I1 89.4 4_665 5_565 ?
I1 PB1 I1 89.413(12) 4_665 5_565 ?
BR1 PB1 I1 0.0 5_565 5_565 ?
I1 PB1 I2 92.326(7) . . ?
BR1 PB1 I2 92.326(7) 4_665 . ?
I1 PB1 I2 92.326(7) 4_665 . ?
BR1 PB1 I2 177.552(18) 5_565 . ?
I1 PB1 I2 177.552(18) 5_565 . ?
I1 PB1 BR2 177.552(18) . 15_666 ?
BR1 PB1 BR2 92.326(7) 4_665 15_666 ?
I1 PB1 BR2 92.326(7) 4_665 15_666 ?
BR1 PB1 BR2 92.326(7) 5_565 15_666 ?
I1 PB1 BR2 92.326(7) 5_565 15_666 ?
I2 PB1 BR2 85.9 . 15_666 ?
I1 PB1 I2 177.552(18) . 15_666 ?
BR1 PB1 I2 92.326(7) 4_665 15_666 ?
I1 PB1 I2 92.326(7) 4_665 15_666 ?
BR1 PB1 I2 92.326(7) 5_565 15_666 ?
I1 PB1 I2 92.326(7) 5_565 15_666 ?
I2 PB1 I2 85.884(17) . 15_666 ?
BR2 PB1 I2 0.0 15_666 15_666 ?
I1 PB1 I2 92.326(7) . 14_566 ?
BR1 PB1 I2 177.552(18) 4_665 14_566 ?
I1 PB1 I2 177.552(18) 4_665 14_566 ?
BR1 PB1 I2 92.326(7) 5_565 14_566 ?
I1 PB1 I2 92.326(7) 5_565 14_566 ?
I2 PB1 I2 85.884(17) . 14_566 ?
BR2 PB1 I2 85.9 15_666 14_566 ?
I2 PB1 I2 85.885(17) 15_666 14_566 ?
I1 PB1 BR2 92.326(7) . 14_566 ?
BR1 PB1 BR2 177.552(18) 4_665 14_566 ?
I1 PB1 BR2 177.552(18) 4_665 14_566 ?
BR1 PB1 BR2 92.326(7) 5_565 14_566 ?
I1 PB1 BR2 92.326(7) 5_565 14_566 ?
I2 PB1 BR2 85.9 . 14_566 ?
BR2 PB1 BR2 85.885(17) 15_666 14_566 ?
I2 PB1 BR2 85.885(17) 15_666 14_566 ?
I2 PB1 BR2 0.00(4) 14_566 14_566 ?
PB1 I1 PB1 180.0 . 13_676 ?
PB1 I2 PB1 76.25(2) . 14_566 ?
N1 C1 N1 180.0 13_576 . ?
N2 C2 N2 180.0 . 14_567 ?
 
 
_refine_diff_density_max    0.708
_refine_diff_density_min   -0.529
_refine_diff_density_rms    0.149

_shelx_res_file
;
TITL 85_15red1_0m_a.res in P6(3)/mmc
 shelxl.res created by SHELXL-2016/4 at 22:28:59 on 28-Jul-2017
CELL  0.71073   8.8136   8.8136  15.2076   90.000   90.000  120.000
ZERR     4.00   0.0005   0.0005   0.0011    0.000    0.000    0.000
LATT   1
SYMM    X - Y,   X, 1/2 + Z
SYMM    Y, - X + Y, 1/2 + Z
SYMM  - Y,   X - Y,   Z
SYMM  - X + Y, - X,   Z
SYMM    X - Y, - Y, - Z
SYMM  - X, - X + Y, - Z
SYMM  - X, - Y, 1/2 + Z
SYMM    Y,   X, - Z
SYMM  - Y, - X, 1/2 - Z
SYMM  - X + Y,   Y, 1/2 - Z
SYMM    X,   X - Y, 1/2 - Z
SFAC  I    PB   N    C  Br
UNIT  10.2   4    8  4  1.8
MERG   2
DFIX  1.4 N1 C1
DFIX  1.4 N2 C2
EADP I1 Br1
EADP I2 Br2
EXYZ I1 Br1
EXYZ I2 Br2
MORE -1
FMAP   2
PLAN   20
ACTA    50.00
CONF
L.S.  20
TEMP    26.01
WGHT    0.055600
EXTI    0.001598
FVAR       0.20295   0.72312   0.93223
PB1   2    0.333333    0.666667    0.379878    10.16667    0.05394    0.05394 =
         0.04378    0.00000    0.00000    0.02697

I1    1    0.500000    1.000000    0.500000    20.25000    0.14034    0.07508 =
         0.10427   -0.04778   -0.02389    0.03754
I2    1    0.168480    0.831520    0.250000    30.25000    0.08757    0.08757 =
         0.07292    0.00000    0.00000    0.06653
BR1   5    0.500000    1.000000    0.500000   -20.25000    0.14034    0.07508 =
         0.10427   -0.04778   -0.02389    0.03754
BR2   5    0.168480    0.831520    0.250000   -30.25000    0.08757    0.08757 =
         0.07292    0.00000    0.00000    0.06653
C1    4    0.000000    1.000000    0.500000    10.08333    0.38512    0.38512 =
         0.15053    0.00000    0.00000    0.19256
C2    4    0.333333    0.666667    0.750000    10.08333    0.21145    0.21145 =
         0.16641    0.00000    0.00000    0.10573
N1    3    0.000000    1.000000    0.409614    10.16667    0.28759    0.28759 =
         0.51048    0.00000    0.00000    0.14379
N2    3    0.333333    0.666667    0.659158    10.16667    0.39421    0.39421 =
         0.32459    0.00000    0.00000    0.19711
HKLF    4




REM  85_15red1_0m_a.res in P6(3)/mmc
REM R1 =  0.0265 for     360 Fo > 4sig(Fo)  and  0.0376 for all     435 data
REM     25 parameters refined using      2 restraints

END

WGHT      0.0453      0.0652

REM Highest difference peak  0.708,  deepest hole -0.529,  1-sigma level  0.149
Q1    1   0.2875  0.7125  0.6845  10.50000  0.05    0.65
Q2    1   0.0683  0.9317  0.5372  10.50000  0.05    0.58
Q3    1   0.2586  0.8393  0.2500  10.50000  0.05    0.54
Q4    1   0.3912  0.6088  0.3805  10.50000  0.05    0.52
Q5    1   0.3333  0.6667  0.4299  10.16667  0.05    0.47
Q6    1   0.2747  0.7253  0.3801  10.50000  0.05    0.46
Q7    1   0.4731  0.7366  0.7500  10.25000  0.05    0.39
Q8    1   0.3303  0.5187  0.7500  10.50000  0.05    0.38
Q9    1   0.2223  0.7777  0.2500  10.25000  0.05    0.38
Q10   1  -0.1426  1.1426  0.4971  10.50000  0.05    0.36
Q11   1   0.5116  1.0232  0.5320  10.50000  0.05    0.36
Q12   1   0.1559  0.8441  0.5370  10.50000  0.05    0.34
Q13   1   0.3333  0.6667  0.3283  10.16667  0.05    0.33
Q14   1   0.1765  0.3530  0.7500  10.25000  0.05    0.33
Q15   1  -0.1631  0.6738  0.2069  10.50000  0.05    0.31
Q16   1   0.4235  0.8470  0.7500  10.25000  0.05    0.31
Q17   1   0.2706  0.7294  0.3089  10.50000  0.05    0.28
Q18   1   0.5201  0.9169  0.5048  11.00000  0.05    0.28
Q19   1   0.1556  0.8444  0.2983  10.50000  0.05    0.27
Q20   1   0.3802  0.6198  0.4461  10.50000  0.05    0.26
;
_shelx_res_checksum    6159

_shelx_hkl_file
;
   0  -1   0 1124.09   36.20
  -1   1   0 1145.19   36.30
   0   1   0 1087.49   36.20
   1  -1   0  903.41   36.20
  -2   1   0  947.21   32.70
   1  -2   0  987.10   32.80
   2  -1   0  928.21   32.70
  -1   2   0  959.50   32.80
   0  -2   0   46.20    2.50
  -2   2   0   47.00    2.40
   2  -2   0   47.30    2.40
   0   2   0   48.70    2.20
   2  -3   0  709.73   24.80
   3  -1   0  725.43   24.60
  -2   3   0  694.83   24.80
  -3   2   0  703.73   24.60
   1  -3   0  690.83   24.50
  -1   3   0  709.63   24.50
   3  -2   0  711.33   24.60
   0  -3   0  830.52   31.90
  -3   3   0  956.80   32.10
   3  -3   0  948.91   32.10
   0   3   0  949.21   31.80
   1   3   0  626.44   22.60
   3  -4   0  651.03   23.00
   4  -1   0  656.63   22.60
  -3   4   0  641.24   22.90
  -4   2   0 9909.71  338.77
   2  -4   0 9762.92  336.87
  -2   4   0 9999.00  337.17
   4  -2   0 9947.80  338.47
   1  -4   0  630.94   22.70
  -4   3   0  642.04   22.80
  -1   4   0  647.64   22.60
   4  -3   0  641.54   22.80
  -4   4   0  135.79    6.40
   4  -4   0  136.29    6.30
   0   4   0  139.99    5.80
   4  -5   0  309.27   12.20
   1   4   0  310.47   11.60
   5  -1   0  324.07   11.80
  -4   5   0  303.17   12.20
   3  -5   0  358.06   13.80
   5  -2   0  356.76   13.50
  -3   5   0  372.36   13.90
  -5   3   0  352.06   13.60
   2  -5   0  358.46   13.60
  -2   5   0  368.86   13.50
   5  -3   0  356.26   13.50
   1  -5   0  316.97   12.60
  -5   4   0  322.27   12.40
   5  -4   0  310.57   12.30
  -1   5   0  316.17   12.00
   5   0   0  157.48    6.70
  -5   5   0  161.98    7.80
   5  -5   0  160.08    7.60
   0   5   0  160.68    7.00
   1   5   0  175.48    7.50
   6  -1   0  165.68    7.60
  -5   6   0  168.88    8.40
   4  -6   0  117.99    6.70
   2   4   0  110.89    6.00
   6  -2   0  120.39    6.00
  -4   6   0  108.59    6.30
   3  -6   0   98.29    5.80
  -3   6   0   97.69    5.90
   6  -3   0   92.79    5.30
   2  -6   0  112.99    6.80
  -6   4   0  121.79    6.70
   6  -4   0  130.49    6.70
  -2   6   0  119.39    6.30
  -6   5   0  168.78    8.60
   1  -6   0  153.18    9.40
  -1   6   0  175.08    7.80
   6   0   0 2210.88   75.69
  -6   6   0 2193.78   76.59
   0   6   0 2228.88   75.89
   6  -6   0 2182.98   76.49
   1   6   0  108.69    6.20
   6  -7   0  117.79    7.60
  -6   7   0  107.69    7.40
   7  -1   0  108.39    6.50
   5  -7   0  371.76   15.50
   2   5   0  386.66   14.30
   7  -2   0  373.46   14.80
   3   4   0   84.79    6.40
   4  -7   0   87.39    6.50
  -4   7   0   85.59    6.60
   7  -3   0   89.89    6.00
  -7   4   0   90.19    6.80
   3  -7   0   83.69    6.70
  -3   7   0   89.19    6.40
   7  -4   0   93.99    6.40
   2  -7   0  402.46   16.30
  -7   5   0  373.76   15.60
  -2   7   0  371.06   15.10
   7  -5   0  371.66   15.50
  -1   7   0  107.49    6.80
   7  -6   0  111.49    7.40
   7   0   0   71.09    5.50
  -7   7   0   68.59    6.60
   7  -7   0   64.79    6.90
   0   7   0   55.79    5.70
   7  -8   0   46.20    6.30
   1   7   0   39.70    4.50
  -7   8   0   37.00    6.00
   8  -1   0   33.10    4.50
   6  -8   0   66.79    6.70
   2   6   0   67.99    5.50
   8  -2   0   73.49    8.40
  -6   8   0   64.69    7.00
   5  -8   0   86.19    7.90
   3   5   0   68.49    5.80
   8  -3   0   68.29    6.80
  -5   8   0   77.49    7.60
   4  -8   0 1083.89   39.70
  -4   8   0 1122.99   39.60
   8  -4   0 1074.69   39.30
   3  -8   0   78.29    8.70
  -8   5   0   81.49    8.00
  -3   8   0   80.19    7.00
   8  -5   0   83.19    7.50
  -8   6   0   70.19    7.40
   2  -8   0   68.99    8.60
   8  -6   0   74.09    7.30
  -2   8   0   86.19    8.90
   7   1   0   39.50    4.00
  -8   7   0   27.30    5.70
  -1   8   0   33.10    4.80
   8  -7   0   40.40    6.30
  -8   8   0   37.00    7.20
   8   0   0   46.80    4.90
   8  -8   0   41.10    6.70
   0   8   0   25.50    5.10
   1   8   0   12.60    4.70
   8  -9   0   25.90    7.10
  -8   9   0   13.40    7.00
   9  -1   0    8.90    5.10
   2   7   0   18.50    4.20
   7  -9   0   23.90    6.70
   9  -2   0   27.70    5.20
  -7   9   0   10.70    5.90
   3   6   0   71.59    6.20
   6  -9   0   98.29   10.10
   9  -3   0   80.19    8.10
  -6   9   0   62.09    7.30
   5  -9   0   48.70    7.10
   4   5   0   34.30    4.90
   9  -4   0   48.20    6.10
  -5   9   0   26.80    5.90
   4  -9   0   42.60    7.50
   9  -5   0   41.70    6.20
  -4   9   0   39.20    5.80
  -9   6   0   59.49    7.70
   3  -9   0   68.19    9.40
  -3   9   0   66.89    6.70
   9  -6   0   64.49    7.00
  -9   7   0   15.20    6.30
   7   2   0   21.70    3.90
  -2   9   0   14.40    5.30
   9  -7   0   16.70    6.10
  -9   8   0   12.60    7.10
   8   1   0   10.10    4.40
   9  -8   0   19.00    6.70
  -1   9   0   16.40    5.50
   9   0   0  106.79    9.40
  -9   9   0   94.39   10.10
   0   9   0  101.89    9.60
   1   9   0   18.40    6.60
  10  -1   0   10.00    6.70
   2   8   0  168.68   10.80
  10  -2   0  200.08   12.40
  -8  10   0  176.48   13.60
   7 -10   0   21.30    7.90
   3   7   0   20.60    4.70
  -7  10   0    3.60    7.00
  10  -3   0   20.90    6.60
   6 -10   0   29.00    8.30
   4   6   0   24.80    4.50
  10  -4   0   27.40    6.80
  -6  10   0   17.00    7.00
   5 -10   0   14.40    8.50
   5   5   0    8.00    5.20
  -5  10   0    7.40    6.10
  10  -5   0   17.10    6.40
   4 -10   0   32.70   10.40
  -4  10   0   16.80    6.50
  10  -6   0   31.00    7.00
   3 -10   0   20.80   11.50
  -3  10   0   14.60    6.40
   8   2   0  174.38   10.10
 -10   8   0  164.88   15.40
  -2  10   0  176.88   12.90
 -10   9   0    3.10    9.50
   9   1   0    7.10    8.00
  -1  10   0    3.80    7.00
   6 -11   0   13.90   11.80
  -6  11   0   -7.00   13.10
   5 -11   0   13.00   13.10
  -5  11   0   11.60    8.20
   1  -1  -1 1966.60   63.39
   0   1  -1 1796.32   62.69
   1   0   1 1885.21   62.79
  -1   1   1 1884.81   62.69
   0  -1   1 1674.83   62.79
   0  -1  -1 1854.21   64.39
  -1   1  -1 1942.51   65.19
   1  -1   1 1925.71   65.09
   0   1   1 1847.82   64.59
  -1   2  -1   -0.30    0.70
   2  -1  -1    0.80    0.70
   1  -2   1    1.50    0.80
  -1   3  -1 1451.75   49.60
   3  -2  -1 1454.35   49.60
  -3   2   1 1442.56   49.60
   1  -3   1 1423.86   49.60
   2  -2  -1  227.28    8.30
   0   2  -1  224.58    8.40
  -2   2   1  231.18    8.30
   2   0   1  224.88    7.80
   0  -2   1  211.48    8.70
  -2   1  -1    0.00    0.60
   1  -2  -1    0.50    0.70
  -1   2   1    0.50    0.60
   2  -1   1    0.40    0.60
   0  -2  -1  232.48    8.20
  -2   2  -1  234.68    8.60
   2  -2   1  227.28    8.50
   0   2   1  233.68    8.20
   3  -1  -1 1426.86   49.60
  -2   3  -1 1474.15   49.80
   2  -3   1 1444.16   49.80
   4  -2  -1    0.50    1.60
  -2   4  -1    3.50    1.90
   2  -4   1    2.00    1.80
   5  -3  -1  646.94   23.40
  -2   5  -1  674.13   23.50
   2  -5   1  639.14   23.50
  -5   3   1  641.74   23.50
  -1   4  -1 1241.88   42.40
   4  -3  -1 1222.78   42.50
  -4   3   1 1210.98   42.50
   1  -4   1 1221.38   42.60
   3  -3  -1    9.10    1.70
   0   3  -1    7.90    1.60
   0  -3   1    8.50    2.20
  -3   3   1   10.60    1.70
   3   0   1    8.80    1.00
   2  -3  -1 1433.96   48.50
  -3   1  -1 1358.96   48.20
  -2   3   1 1427.26   48.50
   3  -1   1 1429.36   48.30
   1  -3  -1 1408.36   49.10
  -3   2  -1 1439.26   49.30
   3  -2   1 1450.25   49.30
  -1   3   1 1446.56   49.20
   0  -3  -1   16.00    1.40
  -3   3  -1   11.40    1.70
   0   3   1    9.70    1.20
   3  -3   1   10.00    1.70
   4  -1  -1 1167.18   41.50
  -3   4  -1 1242.58   41.90
   3  -4   1 1215.38   41.80
   1   3   1 1185.28   41.10
  -3   5  -1  687.23   24.20
   5  -2  -1  671.13   23.90
   3  -5   1  649.74   24.10
   6  -3  -1   -1.10    2.30
  -3   6  -1   -1.80    2.50
   3  -6   1    1.90    2.50
   7  -4  -1  260.17   11.40
  -3   7  -1  261.87   11.50
   3  -7   1  248.28   11.80
  -2   6  -1    4.30    2.80
   6  -4  -1    9.10    2.80
  -6   4   1   12.20    3.20
   2  -6   1    9.00    3.30
  -1   5  -1    1.30    1.90
   5  -4  -1    5.00    2.40
  -5   4   1    5.30    2.40
   1  -5   1    2.80    2.90
   0   4  -1   33.20    2.90
   4  -4  -1   29.80    3.20
  -4   4   1   34.10    3.20
   4   0   1   30.20    2.30
   1   3  -1 1158.48   42.00
   3  -4  -1 1214.98   41.90
   4  -1   1 1202.58   41.50
  -3   4   1 1244.98   41.90
  -4   2  -1   -3.10    1.50
   2  -4  -1    5.50    1.70
   4  -2   1    2.50    1.50
  -2   4   1    2.00    1.60
   1  -4  -1 1183.18   41.40
  -4   3  -1 1194.18   41.70
  -1   4   1 1204.88   41.40
   4  -3   1 1221.68   41.70
  -4   4  -1   31.40    3.20
   0   4   1   28.40    2.40
   4  -4   1   30.30    3.40
   5  -1  -1    5.20    1.90
  -4   5  -1    2.80    2.40
   4  -5   1    3.80    2.40
   1   4   1    4.70    1.40
  -4   6  -1    9.90    3.00
   6  -2  -1    6.00    2.50
   4  -6   1    4.80    2.90
   2   4   1    2.70    1.80
   7  -3  -1  254.97   11.00
  -4   7  -1  261.57   11.30
   3   4   1  241.48   10.30
   8  -4  -1    1.10    3.80
  -4   8  -1    6.50    4.20
   4  -8   1    0.40    4.70
   9  -5  -1   66.09    7.00
  -4   9  -1   59.09    6.80
   4  -9   1   81.49    8.60
  -3   8  -1  242.98   11.60
   8  -5  -1  250.77   12.00
   3  -8   1  233.58   12.90
   7  -5  -1    6.50    3.60
  -2   7  -1    4.00    3.40
   2  -7   1   13.80    5.00
  -7   5   1   -1.20    3.60
  -1   6  -1  494.65   17.90
   6  -5  -1  454.15   18.90
  -6   5   1  489.45   18.30
   1  -6   1  455.95   19.30
   0   5  -1  410.96   15.50
   5  -5  -1  409.66   15.90
   5   0   1  420.46   15.00
  -5   5   1  418.56   16.00
   1   4  -1    3.00    2.10
   4  -5  -1    3.30    2.30
   5  -1   1    6.30    1.70
  -4   5   1    4.70    2.40
   3  -5  -1  676.93   24.30
   5  -2   1  665.23   24.00
  -3   5   1  684.93   24.30
   2  -5  -1  645.34   23.30
  -5   3  -1  640.14   23.40
   5  -3   1  668.73   23.40
  -2   5   1  654.93   23.30
   1  -5  -1    4.10    2.20
  -5   4  -1    3.10    2.30
  -1   5   1    3.70    1.80
   5  -4   1    6.90    2.40
  -5   5  -1  420.06   15.80
   0   5   1  403.86   14.90
   5  -5   1  400.06   15.60
  -5   6  -1  505.65   19.50
   6  -1  -1  508.45   18.90
   1   5   1  518.75   18.40
   7  -2  -1    4.00    3.00
  -5   7  -1    7.00    5.90
   5  -7   1   -0.80    3.40
   2   5   1    3.30    2.00
   8  -3  -1  241.28   11.40
  -5   8  -1  253.87   12.00
   3   5   1  232.28    9.70
   5  -8   1  235.68   12.10
   9  -4  -1   64.89    6.70
  -5   9  -1   66.49    6.90
   5  -9   1   65.79    8.00
   4   5   1   59.49    5.40
  10  -5  -1   10.70    6.80
  -5  10  -1   -5.80    6.30
   5 -10   1   -7.70    8.30
   5   5   1   -3.50    3.90
  10  -6  -1    0.00    6.30
  -4  10  -1   -2.40    6.10
   4 -10   1   15.30   10.50
   9  -6  -1   -3.80    5.30
  -3   9  -1    0.20    4.70
   3  -9   1    5.70    8.20
   8  -6  -1   -6.50    4.30
   2  -8   1    6.60    7.20
  -8   6   1   -4.10    4.80
   7  -6  -1  251.27   11.70
  -1   7  -1  273.87   11.30
   6   1   1  246.58   10.00
  -7   6   1  245.48   12.20
   0   6  -1    1.40    2.90
   6  -6  -1    7.90    3.50
   6   0   1   -0.40    2.30
  -6   6   1    5.30    3.80
   1   5  -1  500.55   18.30
   5  -6  -1  467.95   22.00
  -5   6   1  491.85   18.80
   6  -1   1  497.25   18.00
   2   4  -1    3.20    3.10
   4  -6  -1   12.60    3.00
  -4   6   1    4.00    2.80
   6  -2   1   10.70    2.50
  -6   3  -1   -1.70    2.40
   3  -6  -1   -0.70    2.50
  -3   6   1   -1.70    2.30
   6  -3   1   -1.40    2.10
   2  -6  -1    6.30    2.80
  -6   4  -1    4.00    2.90
  -2   6   1    5.10    2.60
   6  -4   1    9.50    2.80
   1  -6  -1  451.55   18.20
  -6   5  -1  488.05   18.00
  -1   6   1  506.05   17.40
   6  -5   1  413.16   19.30
  -6   6  -1   -2.40    3.30
   6   0  -1   -1.20    2.60
   0   6   1    3.40    2.40
   6  -6   1    9.40    3.50
  -6   7  -1  233.98   11.60
   7  -1  -1  248.98   10.90
   1   6   1  268.97   10.30
   6  -7   1  253.57   12.00
   8  -2  -1   -1.20    3.80
  -6   8  -1   -4.00    4.30
   6  -8   1    4.70    4.60
   2   6   1    0.70    2.60
  -6   9  -1   -4.60    5.40
   9  -3  -1    3.80    4.90
   6  -9   1   -1.20    5.90
   3   6   1    4.00    3.00
  10  -4  -1   15.30    6.80
  -6  10  -1   -6.80    6.30
   4   6   1    4.50    3.50
   6 -10   1   13.50    8.30
  -3  10  -1   57.89    8.40
   3 -10   1   63.99   13.50
   7   3   1   75.29    6.30
  -2   9  -1   32.70    6.10
   9  -7  -1   36.50    6.60
   7   2   1   35.40    4.00
  -9   7   1   25.70    6.90
   8  -7  -1    3.00    4.80
  -1   8  -1   -0.80    4.50
   7   1   1    4.80    2.90
  -8   7   1    3.10    5.10
   0   7  -1   85.39    6.70
   7  -7  -1   93.79    8.10
  -7   7   1   78.29    7.50
   7   0   1   91.99    5.70
   1   6  -1  256.57   10.90
   6  -7  -1  248.38   11.70
   7  -1   1  262.37   10.70
  -6   7   1  249.68   11.60
   5  -7  -1    5.60    3.80
   2   5  -1   -1.30    2.90
   7  -2   1    4.40    2.70
   3   4  -1  242.08   11.90
   4  -7  -1  254.17   11.30
   7  -3   1  255.67   10.80
  -4   7   1  255.37   11.10
   3  -7  -1  247.78   11.30
  -7   4  -1  248.68   11.30
   7  -4   1  257.57   11.00
  -3   7   1  260.37   11.10
  -7   5  -1    2.10    3.50
   2  -7  -1   -2.70    3.90
  -2   7   1    0.10    2.90
   7  -5   1    1.50    3.20
  -1   7   1  261.07   10.80
   7  -6   1  242.18   11.50
  -7   7  -1   73.69    7.20
   7   0  -1   86.19    6.20
   0   7   1   78.89    5.90
   7  -7   1   84.69    7.90
  -7   8  -1   -1.30    4.90
   8  -1  -1    3.00    4.20
   1   7   1   -0.30    3.10
   7  -8   1    9.30    5.50
   9  -2  -1   37.10    5.80
  -7   9  -1   22.20    6.30
   7  -9   1   47.10    7.50
   2   7   1   36.10    4.40
  10  -3  -1   56.89    7.70
  -7  10  -1   61.59    8.80
   3   7   1   65.69    6.80
   7 -10   1   56.49    9.20
  -2  10  -1   -5.60    6.90
 -10   8   1    2.00    8.40
   8   2   1   -1.10    4.00
   9  -8  -1   51.99    7.90
  -1   9  -1   71.89    7.60
  -9   8   1   83.99    9.30
   8   1   1   64.59    6.80
   0   8  -1    0.50    4.40
   8  -8  -1  -10.50    5.20
   8   0   1    0.60    3.40
  -8   8   1   -7.00    5.70
   1   7  -1    2.90    3.70
   7  -8  -1    7.20    5.00
   8  -1   1   -0.20    3.20
  -7   8   1   -4.80    4.70
   2   6  -1    1.70    3.40
   6  -8  -1    2.00    4.70
  -6   8   1   -3.00    4.10
   8  -2   1    8.00    5.60
   5  -8  -1  221.38   11.70
   3   5  -1  225.38   11.30
  -5   8   1  229.78   11.70
   8  -3   1  247.18   11.00
   4  -8  -1    8.60    4.60
  -4   8   1    3.30    4.00
   8  -4   1   -0.10    3.90
   3  -8  -1  228.58   12.20
  -8   5  -1  229.48   11.90
   8  -5   1  235.58   11.60
  -3   8   1  245.98   11.30
  -8   6  -1    7.00    4.70
   2  -8  -1    2.20    6.20
  -2   8   1   -6.00    3.40
   8  -6   1   -3.70    4.30
   7   1  -1    3.20    3.20
  -8   7  -1   -6.10    4.80
  -1   8   1   -2.50    3.60
   8  -7   1   -4.40    4.70
  -8   8  -1    0.00    6.00
   8   0  -1    4.50    4.10
   0   8   1    6.00    4.00
   8  -8   1    0.70    5.80
  -8   9  -1   55.89    8.40
   9  -1  -1   68.89    6.90
   1   8   1   66.89    7.10
   8  -9   1   47.20    7.90
  10  -2  -1   -3.00    6.70
  -8  10  -1  -10.20    7.30
   2   8   1    3.80    4.70
   0   9  -1   -4.70    5.70
  -9   9   1    6.30    8.00
   9   0   1   -0.20    4.80
   1   8  -1   74.99    8.20
   8  -9  -1   54.19    8.10
  -8   9   1   60.99    8.30
   9  -1   1   90.69    8.20
   2   7  -1   33.00    5.00
   7  -9  -1   40.90    7.30
  -7   9   1   36.80    6.60
   9  -2   1   32.40    5.20
   3   6  -1   -1.00    3.70
   6  -9  -1    8.90    6.10
  -6   9   1   -5.10    5.40
   9  -3   1   -1.10    4.40
   5  -9  -1   70.79    7.60
   4   5  -1   60.79    6.70
  -5   9   1   50.29    6.60
   9  -4   1   67.09    6.50
   4  -9  -1   72.29    8.00
  -4   9   1   76.49    7.90
   9  -5   1   57.49    6.60
  -9   6  -1   -9.30    5.50
   3  -9  -1    7.50    7.60
   9  -6   1    2.80    5.20
  -3   9   1   -0.10    4.40
  -9   7  -1   33.30    6.80
  -2   9   1   37.90    5.80
   9  -7   1   36.50    6.90
  -9   8  -1   60.39    8.20
   8   1  -1   71.99    7.80
   9  -8   1   57.29    7.90
  -1   9   1   63.09    6.90
  -9   9  -1   -6.30    7.50
   9   0  -1    4.30    5.70
   0   9   1    3.40    5.30
   2   8  -1    5.80    5.40
  10  -2   1   18.00    6.40
  -8  10   1    1.90    7.80
   3   7  -1   84.69    8.10
   7 -10  -1   66.19    9.70
  10  -3   1   47.80    7.10
  -7  10   1   61.29    8.80
   6 -10  -1    0.00    7.30
   4   6  -1   -5.90    4.60
  -6  10   1   -8.30    6.00
  10  -4   1    0.90    5.90
   5 -10  -1    2.10    8.10
   5   5  -1    6.40    6.10
  -5  10   1   -3.00    6.00
  10  -5   1   -0.50    6.40
   4 -10  -1    5.30    9.50
  -4  10   1    5.10    5.90
  10  -6   1    2.60    6.70
 -10   7  -1   58.89    9.50
   3 -10  -1   52.39   11.20
  -3  10   1   59.49    7.60
   8   2  -1    5.70    5.20
 -10   8  -1    5.80    8.60
  -2  10   1   -6.40    6.30
   0   0  -2    1.90    1.00
   0   0   2    1.50    1.00
   0   1  -2  304.07   11.30
  -1   0  -2  303.37   10.40
   1  -1  -2  298.27   10.70
   1   0   2  305.77   10.50
   0  -1   2  296.67   11.30
   0  -1  -2  300.37   10.60
  -1   1  -2  307.47   10.90
   1  -1   2  317.67   10.90
   0   1   2  298.87   10.60
  -1   2  -2   26.10    2.00
   2  -1  -2   27.30    2.00
   1  -2   2   25.20    2.00
  -1   3  -2  357.46   12.80
   3  -2  -2  328.77   12.60
  -3   2   2  346.17   12.70
   1  -3   2  350.76   12.90
   2  -2  -2 4419.36  143.19
   0   2  -2 3973.20  141.89
   2   0   2 4331.67  142.19
   0  -2   2 3782.22  142.09
  -2   2   2 4353.86  143.19
   1  -2  -2   25.80    1.70
  -2   1  -2   26.00    1.60
   2  -1   2   24.10    1.60
  -1   2   2   27.30    1.70
   0  -2  -2 4040.90  146.39
  -2   2  -2 4360.36  147.69
   0   2   2 4353.16  147.09
   2  -2   2 4481.65  147.99
  -2   3  -2  350.16   12.70
   2  -3   2  340.87   12.70
  -2   4  -2   26.80    2.90
   4  -2  -2   31.80    2.80
   2  -4   2   31.00    2.90
  -2   5  -2   37.60    3.90
   5  -3  -2   44.20    3.90
   2  -5   2   38.10    4.10
  -1   4  -2  312.07   11.80
   4  -3  -2  310.37   11.80
  -4   3   2  305.57   11.90
   1  -4   2  306.57   12.30
   0   3  -2   30.40    3.00
   3  -3  -2   29.30    2.70
   3   0   2   30.60    1.70
  -3   3   2   27.90    2.50
   0  -3   2   30.30    3.50
   2  -3  -2  358.06   12.70
  -3   1  -2  344.77   12.40
  -2   3   2  349.57   12.70
   3  -1   2  344.07   12.40
   1  -3  -2  345.07   12.30
  -3   2  -2  336.97   12.50
   3  -2   2  347.07   12.50
  -1   3   2  348.57   12.40
   0  -3  -2   25.70    1.80
  -3   3  -2   30.10    2.60
   3  -3   2   29.30    2.50
   0   3   2   28.30    1.80
   4  -1  -2  294.97   11.40
  -3   4  -2  298.17   11.50
   3  -4   2  297.07   11.50
   1   3   2  308.87   10.50
  -3   5  -2   34.60    3.80
   5  -2  -2   44.50    3.70
   3  -5   2   38.70    4.00
   6  -3  -2   20.20    3.20
  -3   6  -2   23.40    3.70
   3  -6   2   23.80    3.70
   7  -4  -2   34.20    4.40
  -3   7  -2   34.40    4.70
   3  -7   2   35.20    4.80
  -2   6  -2  445.16   17.20
   6  -4  -2  447.56   17.20
  -6   4   2  451.65   17.40
   2  -6   2  445.56   17.70
  -1   5  -2   26.10    3.10
   5  -4  -2   26.30    3.10
  -5   4   2   36.40    4.10
   1  -5   2   17.60    3.80
   0   4  -2 1265.77   43.90
   4  -4  -2 1275.17   43.90
   4   0   2 1231.68   43.00
  -4   4   2 1258.07   43.90
   1   3  -2  286.07   12.20
   3  -4  -2  303.37   11.50
   4  -1   2  311.67   11.00
  -3   4   2  302.97   11.50
  -4   2  -2   24.30    2.70
   2  -4  -2   36.00    2.70
  -2   4   2   33.90    2.60
   4  -2   2   27.10    2.70
  -4   3  -2  301.87   11.40
   1  -4  -2  298.67   11.00
  -1   4   2  305.47   11.10
   4  -3   2  290.57   11.30
  -4   4  -2 1289.07   43.70
   4  -4   2 1236.48   43.60
   0   4   2 1227.18   42.90
   5  -1  -2   25.30    2.90
  -4   5  -2   17.50    3.00
   4  -5   2   18.80    3.00
   1   4   2   20.60    2.00
   6  -2  -2  434.16   16.80
  -4   6  -2  449.06   17.30
   4  -6   2  448.86   17.20
   2   4   2  445.86   15.60
  -4   7  -2   34.10    4.50
   3   4   2   30.30    2.50
   4  -7   2   29.90    4.60
   8  -4  -2   24.10    4.60
  -4   8  -2   24.30    5.30
   4  -8   2   21.30    5.40
  -4   9  -2    1.60    4.90
   9  -5  -2    0.50    5.40
   4  -9   2   -5.00    6.90
  -3   8  -2   51.09    5.60
   8  -5  -2   58.49    6.80
   3  -8   2   54.99    7.30
   7  -5  -2   10.10    3.90
  -2   7  -2    8.20    3.40
  -7   5   2   10.80    4.20
   2  -7   2    7.70    5.20
   6  -5  -2  135.49    7.50
  -1   6  -2  153.88    7.60
   5   1   2  138.09    5.80
   1  -6   2  132.19    9.90
  -6   5   2  149.59    8.10
   0   5  -2   25.70    3.30
   5  -5  -2   26.00    3.60
  -5   5   2   27.00    3.60
   5   0   2   24.00    2.60
   4  -5  -2   23.00    3.10
   1   4  -2   16.40    3.20
   5  -1   2   23.50    2.60
  -4   5   2   21.40    3.00
  -5   2  -2   41.10    3.30
   3  -5  -2   40.00    3.70
   5  -2   2   40.30    3.30
  -3   5   2   40.10    3.60
   2  -5  -2   41.60    3.40
  -5   3  -2   40.10    3.60
   5  -3   2   42.40    3.70
  -2   5   2   42.30    3.50
   1  -5  -2   19.70    2.60
  -5   4  -2   28.30    3.20
   5  -4   2   28.30    3.20
  -1   5   2   24.80    2.50
  -5   5  -2   26.70    3.40
   5  -5   2   24.50    3.30
   0   5   2   22.00    2.30
   6  -1  -2  138.49    7.10
  -5   6  -2  140.99    7.90
   1   5   2  144.99    6.00
   5  -6   2  131.49    7.60
   7  -2  -2    8.10    3.40
  -5   7  -2    6.40    3.70
   2   5   2    7.20    1.90
   5  -7   2   12.10    3.90
  -5   8  -2   58.09    6.30
   8  -3  -2   48.70    5.40
   3   5   2   54.59    3.70
   5  -8   2   52.29    6.30
   9  -4  -2    0.80    5.20
  -5   9  -2   -5.90    5.40
   4   5   2   -3.90    2.20
   5  -9   2   -3.60    6.30
  10  -5  -2    8.90    7.20
  -5  10  -2    0.90    6.70
   5 -10   2   19.00    9.50
   5   5   2    9.40    2.90
  10  -6  -2   17.70    6.90
  -4  10  -2    9.00    7.20
   4 -10   2   31.90   11.40
   9  -6  -2    0.10    5.70
  -3   9  -2   11.00    5.70
   3  -9   2    1.60   13.70
   8  -6  -2   96.39    8.00
  -2   8  -2   79.39    7.70
   6   2   2   84.19    4.70
  -8   6   2   89.49    8.70
   2  -8   2   91.49   10.30
  -1   7  -2   24.50    4.10
   7  -6  -2   30.10    4.90
  -7   6   2   28.10    4.80
   6   1   2   29.10    3.30
   6  -6  -2   28.90    4.30
   0   6  -2   38.10    4.30
  -6   6   2   31.50    4.70
   6   0   2   30.90    2.90
   1   5  -2  138.39    7.50
   6  -1   2  133.19    6.40
  -5   6   2  148.89    7.80
   2   4  -2  436.36   18.00
   4  -6  -2  455.85   17.20
   6  -2   2  451.65   16.60
  -4   6   2  438.26   17.00
  -6   3  -2   27.00    3.30
   3  -6  -2   25.20    3.30
  -3   6   2   21.70    3.10
   6  -3   2   23.10    3.00
   2  -6  -2  447.66   16.80
  -6   4  -2  441.86   17.10
  -2   6   2  446.16   16.70
   6  -4   2  450.45   17.10
   1  -6  -2  125.79    7.40
  -6   5  -2  132.29    7.30
  -1   6   2  141.49    6.60
   6  -5   2  145.19    7.70
  -6   6  -2   33.90    4.70
   0   6   2   30.90    3.60
   6  -6   2   31.80    4.50
   7  -1  -2   29.80    4.20
  -6   7  -2   30.80    4.80
   1   6   2   31.90    3.10
   6  -7   2   30.80    5.10
   8  -2  -2   88.49    7.50
  -6   8  -2   88.59    7.70
   6  -8   2   93.69    8.90
   2   6   2   79.19    5.10
  -6   9  -2    1.40    5.80
   9  -3  -2    7.10    5.30
   6  -9   2    5.00    6.00
   3   6   2    1.80    2.60
  -6  10  -2    9.40    6.90
  10  -4  -2   16.10    6.70
   4   6   2   14.70    3.20
   6 -10   2   27.40    8.80
  -3  10  -2   10.30    6.90
   3 -10   2   25.00   13.30
   7   3   2   19.80    3.20
  -2   9  -2   -5.80    5.20
   9  -7  -2    5.50    5.80
  -9   7   2    1.10    6.30
   7   2   2   -0.50    2.60
   8  -7  -2    4.70    5.10
  -1   8  -2    9.20    5.40
  -8   7   2   12.70    5.60
   7   1   2   13.30    2.90
   7  -7  -2   12.40    4.50
   0   7  -2    4.70    3.80
   7   0   2    0.50    2.50
  -7   7   2    3.70    4.60
   1   6  -2   32.60    4.40
   6  -7  -2   29.60    4.90
   7  -1   2   29.20    3.40
  -6   7   2   32.50    4.80
   2   5  -2    5.00    3.80
   5  -7  -2   10.20    4.00
   7  -2   2   10.00    2.90
  -5   7   2    5.70    3.90
   4  -7  -2   33.80    4.20
   3   4  -2   33.80    5.60
  -4   7   2   26.90    4.10
   7  -3   2   31.40    3.80
   3  -7  -2   29.10    4.00
  -7   4  -2   26.40    4.10
   7  -4   2   29.30    3.90
  -3   7   2   35.50    4.20
  -7   5  -2    4.40    3.60
   2  -7  -2    4.00    3.80
   7  -5   2   12.80    3.80
  -2   7   2    8.00    3.10
   7  -6   2   26.30    4.60
  -1   7   2   31.30    3.80
   7   0  -2    5.80    3.50
  -7   7  -2    4.60    4.40
   7  -7   2    5.80    4.70
   0   7   2    1.60    2.90
  -7   8  -2   15.50    5.40
   8  -1  -2    9.20    4.40
   7  -8   2   10.60    5.20
   1   7   2    6.20    3.20
  -7   9  -2   -3.00    5.60
   9  -2  -2    6.50    5.00
   2   7   2   -4.20    3.00
   7  -9   2   -2.60    6.30
  10  -3  -2   25.80    7.10
  -7  10  -2   12.20    7.50
   3   7   2   16.90    3.80
   7 -10   2    6.10    8.50
  -2  10  -2    2.50    7.10
   8   2   2    4.30    3.90
   9  -8  -2   18.70    7.30
  -1   9  -2    6.90    5.70
  -9   8   2    4.70    7.40
   8   1   2   13.10    3.80
   8  -8  -2   33.40    6.60
  -8   8   2   25.90    6.60
   8   0   2   32.10    4.10
   7  -8  -2    8.50    5.20
   1   7  -2   15.70    4.50
   8  -1   2   14.10    3.60
  -7   8   2   10.40    5.60
   2   6  -2   92.29    7.60
   6  -8  -2   97.09    8.50
  -6   8   2   90.29    8.20
   8  -2   2   89.19    7.40
   5  -8  -2   49.70    5.80
   3   5  -2   55.89    6.60
   8  -3   2   51.29    5.20
  -5   8   2   55.89    5.90
   4  -8  -2   25.70    4.80
  -4   8   2   26.40    4.60
   8  -4   2   28.40    4.50
   3  -8  -2   58.49    6.20
  -8   5  -2   46.30    5.80
   8  -5   2   53.59    5.80
  -3   8   2   55.59    6.20
   2  -8  -2   73.39    7.80
  -8   6  -2   98.99    8.60
  -2   8   2   82.19    6.70
   8  -6   2   99.69    8.30
  -8   7  -2   10.50    5.30
  -1   8   2    5.50    3.80
   8  -7   2   16.10    5.60
  -8   8  -2   21.70    6.40
   8  -8   2   46.70    7.20
   0   8   2   20.40    4.40
  -8   9  -2   14.90    6.90
   9  -1  -2   18.30    5.70
   8  -9   2   10.40    6.90
   1   8   2   14.80    4.30
  10  -2  -2   -0.20    7.00
  -8  10  -2   -9.10    7.60
   2   8   2   11.90    4.50
   0   9  -2    0.00    5.70
  -9   9   2    4.60    8.10
   8  -9  -2   24.70    7.70
  -8   9   2   10.70    7.10
   9  -1   2   15.80    4.90
   7  -9  -2    1.30    6.00
   2   7  -2    2.40    4.50
  -7   9   2    5.00    6.20
   9  -2   2   -3.50    4.20
   6  -9  -2   10.80    6.10
   3   6  -2    5.20    4.70
  -6   9   2   -5.00    5.10
   9  -3   2    4.60    4.60
   4   5  -2   -4.90    5.90
   5  -9  -2    3.90    5.70
   9  -4   2   -0.80    4.70
  -5   9   2   -4.80    4.80
   4  -9  -2    5.20    5.90
  -4   9   2   -5.40    4.50
   9  -5   2    4.20    5.00
   3  -9  -2   -5.60    7.00
  -9   6  -2    3.20    5.80
  -3   9   2    2.10    4.50
   9  -6   2    9.40    5.60
  -9   7  -2   10.20    6.10
  -2   9   2   -4.70    4.30
   9  -7   2    6.50    6.00
   8   1  -2   15.40    5.90
  -9   8  -2    9.20    7.30
  -1   9   2   11.10    5.00
   9  -8   2   14.70    6.90
  -9   9  -2   -1.30    8.00
   9   0  -2   -3.70    6.00
   0   9   2    3.00    5.20
   2   8  -2    2.20    6.00
  10  -2   2    5.20    6.10
  -8  10   2    2.30    8.10
   3   7  -2    5.10    5.40
   7 -10  -2   23.30    8.10
  -7  10   2   10.30    7.60
  10  -3   2   11.10    6.30
   4   6  -2   19.60    5.90
   6 -10  -2   15.80    8.20
  -6  10   2   12.20    7.10
  10  -4   2   23.80    6.40
   5 -10  -2    4.00    8.00
   5   5  -2   15.80    7.30
  -5  10   2    3.40    6.10
  10  -5   2   12.10    6.80
   4 -10  -2   18.00    9.50
  10  -6   2   11.50    6.60
  -4  10   2   10.60    6.50
 -10   7  -2   15.20    8.00
   3 -10  -2   27.30    9.40
  -3  10   2   17.90    6.30
 -10   8  -2    9.60    8.80
   8   2  -2    7.20    6.70
  -2  10   2    5.80    6.40
   0   0  -3    0.90    1.50
  -1   0  -3  557.24   18.90
   0   1  -3  524.35   19.80
   0  -1   3  524.75   19.90
   1   0   3  570.74   19.00
   0  -1  -3  546.45   19.30
   0  -1  -3  518.65   19.70
  -1   1  -3  582.84   19.70
   1  -1   3  583.04   19.70
  -1   2  -3    0.30    1.40
   1  -2   3    0.20    1.30
   1   1   3   -0.70    0.70
  -1   3  -3  558.04   19.70
   3  -2  -3  549.74   19.60
   2   1   3  525.65   18.60
   1  -3   3  549.05   19.90
  -2   0  -3 4948.00  164.78
   0   2  -3 4678.93  165.08
   2  -2  -3 5193.48  166.68
   0  -2   3 4477.45  165.28
  -2   2   3 4775.72  164.48
   2   0   3 5005.30  165.58
   1  -2  -3    0.60    0.90
  -2   1  -3    1.40    0.90
   2  -1   3    0.60    0.90
   0  -2  -3 4958.70  168.38
  -2   2  -3 4717.73  167.88
   0   2   3 5044.40  169.08
   2  -2   3 5078.79  169.68
  -2   3  -3  532.45   18.80
   1   2   3  523.15   17.80
   1   2   3  499.35   18.20
   2  -3   3  531.05   18.80
  -2   4  -3   -1.50    1.90
   4  -2  -3   -0.30    1.70
   2  -4   3    0.90    1.90
  -2   5  -3  178.68    8.10
   5  -3  -3  172.48    7.70
   2  -5   3  163.68    8.10
   4  -3  -3  192.38    8.10
  -1   4  -3  203.78    8.40
   3   1   3  187.88    6.70
   1  -4   3  192.48    8.90
  -4   3   3  186.18    8.10
   0   3  -3    0.10    2.20
   3  -3  -3    2.80    1.60
  -3   3   3    3.70    1.70
   3   0   3    3.70    0.90
   0  -3   3   -3.30    2.70
   1   2  -3  491.85   19.60
   2  -3  -3  547.85   19.00
  -3   1  -3  541.65   18.60
   3  -1   3  525.25   18.70
  -2   3   3  551.94   19.00
  -3   2  -3  543.35   19.00
   1  -3  -3  539.35   18.80
   3  -2   3  525.95   19.00
  -1   3   3  532.15   18.80
   0  -3  -3    2.60    0.70
  -3   3  -3    0.50    1.50
   0  -3  -3   -0.10    1.90
   3  -3   3    3.70    1.60
   0   3   3    2.30    1.00
  -3   4  -3  195.18    8.30
   1   3   3  195.98    7.00
   3  -4   3  197.58    8.30
   5  -2  -3  165.58    7.60
  -3   5  -3  170.98    7.90
   3  -5   3  170.08    8.00
   6  -3  -3    2.50    2.90
  -3   6  -3   -0.80    3.10
   3  -6   3    1.20    2.90
   7  -4  -3  156.38    8.30
  -3   7  -3  149.29    8.70
   3  -7   3  156.78    9.50
   6  -4  -3 1209.38   42.40
  -2   6  -3 1214.08   42.40
   2  -6   3 1160.58   42.90
  -1   5  -3    0.90    2.50
   5  -4  -3    3.20    2.30
   1  -5   3    2.20    3.70
  -5   4   3    3.70    2.50
   4   1   3    2.30    0.90
   4  -4  -3 2123.89   73.49
   0   4  -3 2202.08   73.89
   4   0   3 2059.39   72.59
  -4   4   3 2154.48   73.49
   3  -4  -3  192.88    8.00
  -4   1  -3  195.98    7.30
   1   3  -3  184.48    9.20
   4  -1   3  196.38    7.50
  -3   4   3  194.98    8.00
   2  -4  -3   -1.60    1.40
  -4   2  -3   -0.70    1.40
   4  -2   3   -2.10    1.40
  -2   4   3    1.20    1.50
  -4   3  -3  186.78    7.80
   1  -4  -3  192.18    7.40
   4  -3   3  190.08    7.90
  -1   4   3  190.38    7.50
  -4   4  -3 2144.69   72.99
   0   4   3 2067.69   72.19
   4  -4   3 2142.29   72.99
   5  -1  -3    0.50    2.40
  -4   5  -3    0.70    2.50
   4  -5   3   -1.90    2.50
   1   4   3    0.30    1.10
   6  -2  -3 1151.18   40.80
  -4   6  -3 1189.48   41.20
   4  -6   3 1176.48   41.20
   2   4   3 1107.39   39.40
   7  -3  -3  164.68    8.50
   4  -7   3  156.08    9.00
   3   4   3  153.68    5.70
   8  -4  -3   -1.50    4.20
  -4   8  -3   -2.20    4.30
   4  -8   3   -2.80    5.00
  -4   9  -3   37.10    6.50
   9  -5  -3   32.80    6.30
   4  -9   3   30.50    8.00
   8  -5  -3   30.80    5.20
  -3   8  -3   11.10    4.80
   3  -8   3   18.30   10.00
  -2   7  -3    3.30    3.70
   7  -5  -3    4.30    3.60
   2  -7   3    2.20    5.60
   5   2   3   -0.40    1.20
  -1   6  -3  101.89    6.40
   6  -5  -3  101.89    6.70
   5   1   3   97.79    4.30
  -6   5   3   96.29    6.60
   1  -6   3   88.29    9.50
   5  -5  -3  357.46   14.20
   0   5  -3  361.56   14.40
  -5   5   3  369.46   14.40
   5   0   3  353.16   13.00
   1   4  -3    3.10    3.30
   4  -5  -3    3.50    2.50
   5  -1   3    2.00    1.60
  -4   5   3    1.70    2.50
   2   3  -3  165.38    8.70
   3  -5  -3  176.98    7.70
  -5   2  -3  172.58    7.20
   5  -2   3  167.78    7.30
  -3   5   3  177.48    7.70
   2  -5  -3  162.68    7.20
  -5   3  -3  173.08    7.40
   5  -3   3  176.78    7.50
  -2   5   3  158.28    7.20
   1  -5  -3   -1.70    1.80
  -5   4  -3   -2.40    2.30
   5  -4   3    2.60    2.50
  -1   5   3   -0.90    1.70
  -5   5  -3  354.86   14.40
   0   5   3  363.46   13.20
   5  -5   3  362.56   14.40
   6  -1  -3   89.99    6.10
  -5   6  -3   93.59    6.80
   1   5   3   98.99    4.50
   5  -6   3   94.09    6.30
   7  -2  -3    5.30    3.50
  -5   7  -3   -2.80    3.60
   5  -7   3   -3.00    3.60
   2   5   3   -0.50    1.50
  -5   8  -3   15.80    5.10
   8  -3  -3   23.20    4.90
   3   5   3   22.00    2.00
   5  -8   3   14.50    5.30
   9  -4  -3   30.60    6.10
  -5   9  -3   38.20    6.80
   4   5   3   34.10    2.80
   5  -9   3   26.70    7.60
  -5  10  -3   -6.80    6.80
  10  -5  -3    9.40    7.10
   5 -10   3   -7.80    9.20
   5   5   3   -1.00    1.80
  -4  10  -3   90.59    9.60
  10  -6  -3   98.79   11.60
   4 -10   3  113.09   13.80
   6   4   3   93.69    4.50
   9  -6  -3   -3.00    5.40
  -3   9  -3    3.80    5.30
   3  -9   3    3.20    9.10
   6   3   3   -0.50    1.70
   8  -6  -3  268.87   13.40
  -2   8  -3  278.37   13.30
   2  -8   3  287.37   17.80
   6   2   3  283.87   10.40
  -1   7  -3   39.10    4.80
   7  -6  -3   30.20    4.80
  -7   6   3   32.00    5.10
   6   1   3   29.10    3.00
   0   6  -3   -1.80    3.20
   6  -6  -3    1.20    3.50
   6   0   3    0.90    1.80
  -6   6   3   -2.30    3.70
   1   5  -3   90.19    7.00
   5  -6  -3   97.59    6.50
   6  -1   3   96.79    5.10
  -5   6   3   87.39    6.20
   4  -6  -3 1154.98   41.60
   2   4  -3 1183.28   42.90
   6  -2   3 1166.08   41.10
  -4   6   3 1207.88   41.70
  -6   3  -3   -3.40    2.50
   3  -6  -3    0.60    2.50
   6  -3   3   -0.10    2.50
  -3   6   3   -3.00    2.40
   2  -6  -3 1191.78   41.00
  -6   4  -3 1178.58   41.30
  -2   6   3 1175.88   41.10
   6  -4   3 1136.89   41.20
   1  -6  -3   92.49    5.90
  -6   5  -3   87.89    6.30
  -1   6   3  104.39    5.50
   6  -5   3  110.89    6.70
  -6   6  -3   -4.30    3.30
   6  -6   3    0.20    3.30
   0   6   3    2.40    2.10
  -6   7  -3   34.70    5.10
   7  -1  -3   37.90    4.70
   1   6   3   34.10    3.10
   6  -7   3   28.40    5.10
   8  -2  -3  287.97   13.20
  -6   8  -3  282.87   13.60
   2   6   3  276.47   11.00
   6  -8   3  303.07   14.00
   9  -3  -3    4.20    5.40
  -6   9  -3   -9.80    5.30
   3   6   3    0.50    2.20
   6  -9   3    0.80    6.30
  10  -4  -3   96.59   11.40
  -6  10  -3  105.89   12.30
   4   6   3  106.39    5.40
   6 -10   3   87.59   10.90
  -3  10  -3    5.70    7.10
   7   3   3    7.60    2.60
   9  -7  -3   66.19    7.90
  -2   9  -3   61.89    7.30
   7   2   3   73.99    4.90
   8  -7  -3    3.10    5.10
  -1   8  -3    1.10    4.40
  -8   7   3   -5.50    5.30
   7   1   3    1.90    2.50
   7  -7  -3   79.89    7.60
   0   7  -3   75.09    7.20
   7   0   3   76.49    5.10
  -7   7   3   90.49    8.30
   6  -7  -3   29.80    5.00
   1   6  -3   31.20    4.80
   7  -1   3   37.40    3.70
  -6   7   3   35.80    4.90
   2   5  -3    2.20    4.60
   5  -7  -3    1.40    3.40
   7  -2   3   -0.30    2.60
  -5   7   3   -2.60    3.60
   3   4  -3  164.68   10.60
   4  -7  -3  154.68    8.50
  -4   7   3  151.38    8.40
   7  -3   3  164.68    8.00
   3  -7  -3  161.58    8.40
  -7   4  -3  151.38    8.40
  -3   7   3  159.58    7.90
   7  -4   3  158.38    8.30
  -7   5  -3    0.50    3.50
   2  -7  -3   -2.80    3.50
  -2   7   3    0.80    2.90
   7  -5   3    1.30    3.30
  -7   6  -3   21.70    5.40
  -1   7   3   35.60    3.80
   7  -6   3   31.40    4.70
  -7   7  -3   75.69    7.10
   7   0  -3   68.89    7.00
   0   7   3   80.89    5.60
   7  -7   3   75.49    7.40
   8  -1  -3    5.20    4.70
  -7   8  -3    4.90    5.40
   1   7   3   -0.30    3.00
   7  -8   3   -0.20    5.30
  -7   9  -3   62.59    8.10
   9  -2  -3   67.49    7.30
   2   7   3   77.69    5.80
   7  -9   3   67.59    8.50
  -7  10  -3   -2.10    7.10
  10  -3  -3   12.50    6.90
   3   7   3   13.30    3.40
   7 -10   3   10.40    8.70
  -2  10  -3   -4.70    7.10
   9  -8  -3   23.90    7.40
  -1   9  -3   15.70    6.40
   8   1   3   21.00    3.90
  -9   8   3   15.60    8.10
   0   8  -3  221.48   11.80
   8  -8  -3  194.18   13.00
   8   0   3  215.28    9.80
  -8   8   3  192.98   12.40
   7  -8  -3    0.80    5.10
   1   7  -3   -3.60    4.50
  -7   8   3    3.70    5.00
   8  -1   3    3.10    3.20
   6  -8  -3  275.47   13.40
   2   6  -3  298.87   13.80
   8  -2   3  276.27   12.90
  -6   8   3  276.47   13.30
   5  -8  -3   26.70    5.20
   3   5  -3   11.50    6.30
  -5   8   3   16.20    4.90
   8  -3   3   23.80    4.30
   4  -8  -3    5.20    4.40
  -8   4  -3    4.50    4.50
  -4   8   3    0.60    3.70
   8  -4   3    2.30    3.70
  -8   5  -3   20.30    4.90
   3  -8  -3   28.10    5.10
   8  -5   3   28.20    4.80
  -3   8   3   18.60    4.30
  -8   6  -3  291.67   13.70
   2  -8  -3  250.37   13.50
  -2   8   3  287.87   12.40
   8  -6   3  277.07   13.40
  -8   7  -3    1.90    4.80
  -1   8   3   -3.60    3.50
   8  -7   3    3.90    5.10
   8   0  -3  202.88   11.30
  -8   8  -3  212.28   12.40
   0   8   3  193.88   10.00
   8  -8   3  196.48   12.10
   9  -1  -3   26.40    6.30
  -8   9  -3   11.10    7.00
   8  -9   3   26.90    7.40
   1   8   3   20.70    4.40
  -8  10  -3   -4.00    8.00
  10  -2  -3   -8.80    7.10
   2   8   3   -1.10    4.00
   0   9  -3    4.50    6.50
  -9   9   3    8.90    8.70
   1   8  -3   20.50    5.80
   8  -9  -3   11.40    7.20
  -8   9   3   21.80    7.60
   9  -1   3   13.90    4.90
   2   7  -3   85.99    9.10
   7  -9  -3   71.49    8.30
   9  -2   3   69.19    7.50
  -7   9   3   83.49    9.40
   6  -9  -3    0.00    5.90
   3   6  -3   -7.80    5.30
   9  -3   3    6.30    4.70
  -6   9   3   -1.10    5.60
   4   5  -3   27.50    7.80
   5  -9  -3   37.10    6.80
   9  -4   3   43.10    5.90
  -5   9   3   29.80    6.00
   4  -9  -3   34.60    6.70
  -9   5  -3   31.30    6.60
  -4   9   3   33.40    5.40
   9  -5   3   36.70    6.20
  -9   6  -3    0.80    5.90
   3  -9  -3    9.00    7.10
  -3   9   3   -3.00    4.40
   9  -6   3   -2.20    5.20
  -9   7  -3   60.49    8.30
  -2   9   3   69.69    8.00
   9  -7   3   61.69    7.50
  -9   8  -3   16.90    7.70
   8   1  -3   19.40    6.00
   9  -8   3   13.00    7.20
  -1   9   3   18.70    5.00
  -9   9  -3    3.20    8.00
   9   0  -3   -2.90    6.40
   0   9   3    2.90    5.20
   2   8  -3   -1.90    6.30
  -8  10   3    3.70    8.10
  10  -2   3    1.00    6.20
   3   7  -3    5.50    6.10
   7 -10  -3    0.90    8.40
  10  -3   3    4.40    5.90
  -7  10   3    4.60    7.80
   4   6  -3   94.19    9.30
   6 -10  -3  116.39   13.40
  10  -4   3  114.29   10.70
  -6  10   3   88.09    9.20
   5   5  -3    7.20    7.80
   5 -10  -3    6.60    8.00
  10  -5   3    3.30    6.50
  -5  10   3    2.30    6.40
   4 -10  -3  102.89   16.30
  -4  10   3   95.39   10.50
  10  -6   3  108.89   11.70
 -10   7  -3    8.20    8.50
   3 -10  -3   18.10    8.60
  -3  10   3    9.60    6.00
 -10   8  -3    2.20    8.70
  -2  10   3    4.00    6.30
   0   0  -4 1786.42   61.79
  -1   0  -4  467.55   16.10
   0   1  -4  422.86   16.90
   0  -1   4  443.56   17.20
   1   0   4  459.25   16.20
  -1   1  -4  465.25   16.50
   0  -1  -4  427.06   16.50
   1  -1   4  458.55   16.40
  -1   2  -4 5443.86  177.68
  -1  -1  -4 5124.09  177.78
  -1  -1  -4 5339.47  177.58
   1   1   4 5088.89  178.88
   1  -2   4 5097.99  177.58
  -1   3  -4  388.46   14.70
   3  -2  -4  394.06   14.40
   1  -3   4  370.96   14.90
   2   1   4  380.96   13.40
   0   2  -4 1428.56   49.60
   2  -2  -4 1406.86   48.70
  -2   0  -4 1380.86   48.00
   0  -2   4 1431.36   49.90
   2   0   4 1405.06   48.20
  -2   1  -4 5300.27  182.78
   1  -2  -4 5383.36  183.48
   2  -1   4 5362.36  182.58
   0  -2  -4 1359.06   47.30
   0  -2  -4 1349.56   47.90
  -2   2  -4 1409.26   47.90
   2  -2   4 1442.36   47.90
   0   2   4 1373.86   47.40
  -2   3  -4  381.36   14.20
   1   2   4  371.96   13.20
   2  -3   4  379.86   14.20
  -2   4  -4  298.97   11.90
   4  -2  -4  294.37   11.80
   2   2   4  302.27   10.40
   2   2   4  297.17   10.30
   2  -4   4  292.77   11.90
  -2   5  -4  201.88    9.00
   5  -3  -4  191.68    8.50
   3   2   4  180.88    6.60
   2  -5   4  190.88    9.20
  -1   4  -4  200.38    8.90
   4  -3  -4  185.28    8.20
   3   1   4  191.38    7.00
   1  -4   4  197.08    9.60
   0   3  -4 2963.60  101.09
   3  -3  -4 2952.50  100.29
  -3   3   4 2936.31  100.29
   3   0   4 2881.91   99.59
   1   2  -4  349.87   14.80
  -3   1  -4  371.66   13.40
   2  -3  -4  389.76   13.80
  -2   3   4  388.66   13.90
   3  -1   4  376.06   13.50
   1  -3  -4  369.36   13.50
  -3   2  -4  370.26   13.70
   3  -2   4  375.86   13.80
  -1   3   4  387.06   13.60
  -3   3  -4 2920.91   98.19
   0  -3  -4 2977.10   98.09
   0  -3  -4 2581.14   97.69
   0   3   4 2930.41   97.59
   3  -3   4 2940.01   98.19
  -3   4  -4  196.68    8.40
   3  -4   4  189.78    8.30
   1   3   4  190.88    7.00
   5  -2  -4  193.58    8.70
  -3   5  -4  185.48    8.60
   3  -5   4  183.78    8.90
   2   3   4  189.78    6.70
  -3   6  -4 1685.03   58.49
   6  -3  -4 1633.24   58.19
   3  -6   4 1679.63   58.59
   7  -4  -4  114.19    7.80
  -3   7  -4  120.19   11.10
   6  -4  -4  186.28   10.10
  -2   6  -4  201.88    9.50
   2  -6   4  187.58   10.60
   4   2   4  197.18    6.90
   5  -4  -4 1851.51   63.19
  -1   5  -4 1854.21   63.49
   4   1   4 1742.23   61.79
   1  -5   4 1827.22   64.39
   4  -4  -4  476.65   17.90
   0   4  -4  479.95   18.60
   4   0   4  476.95   16.90
  -4   4   4  481.35   17.90
  -4   1  -4  191.78    7.30
   3  -4  -4  200.28    8.20
   1   3  -4  172.88    9.70
   4  -1   4  198.08    7.60
  -3   4   4  191.98    8.10
   2  -4  -4  280.97   11.00
  -4   2  -4  293.17   10.90
  -2   4   4  285.07   11.00
   4  -2   4  300.47   11.10
   1  -4  -4  199.48    7.60
  -4   3  -4  198.18    8.20
   4  -3   4  185.68    8.10
  -1   4   4  195.88    7.70
  -4   4  -4  469.25   17.80
   0   4   4  477.65   16.90
   4  -4   4  477.45   17.80
  -4   5  -4 1790.42   62.99
   1   4   4 1762.12   61.79
   4  -5   4 1885.31   63.09
   6  -2  -4  205.28    9.60
  -4   6  -4  201.88    9.70
   2   4   4  198.78    7.40
  -4   7  -4  112.19    7.60
   7  -3  -4  106.99    7.70
   3   4   4  114.59    4.30
   4  -7   4  118.79    8.50
  -4   8  -4   -1.00    4.60
   8  -4  -4    2.40    4.50
   4  -8   4   11.00    6.00
   9  -5  -4   35.20    6.70
  -4   9  -4   24.60    6.30
   4  -9   4   33.10    8.70
  -3   8  -4   47.90    6.20
   8  -5  -4   54.89    6.20
   3  -8   4   43.80    8.00
  -2   7  -4  392.66   16.10
   7  -5  -4  403.36   16.20
   2  -7   4  377.66   18.30
   5   2   4  383.16   13.70
  -1   6  -4  102.39    7.30
   6  -5  -4  109.19    6.80
   1  -6   4  116.19   10.50
  -6   5   4   86.79    7.00
   5   1   4  110.69    4.60
   0   5  -4  234.08   10.90
   5  -5  -4  238.68   10.40
  -5   5   4  226.98   10.40
   5   0   4  232.38    8.90
   4  -5  -4 1859.31   64.49
   1   4  -4 1905.21   65.69
  -4   5   4 1843.62   64.49
   5  -1   4 1835.52   63.79
   2   3  -4  164.58    9.50
   3  -5  -4  187.78    8.20
  -5   2  -4  195.48    7.70
   5  -2   4  190.78    7.80
  -3   5   4  181.98    8.10
   2  -5  -4  184.28    7.90
  -5   3  -4  184.78    8.10
  -2   5   4  196.08    8.00
   5  -3   4  185.78    8.20
   1  -5  -4 1887.71   63.19
  -5   4  -4 1806.82   63.89
  -1   5   4 1819.02   63.39
   5  -4   4 1862.01   63.89
  -5   5  -4  235.98   10.60
   0   5   4  237.28    9.20
   5  -5   4  234.88   10.60
   6  -1  -4  104.79    7.00
  -5   6  -4  113.29    7.10
   5  -6   4  107.19    7.30
   1   5   4  110.19    5.00
   7  -2  -4  380.76   15.90
  -5   7  -4  386.26   16.20
   2   5   4  391.16   13.90
   5  -7   4  393.46   16.30
  -5   8  -4   40.10    5.90
   8  -3  -4   54.99    6.20
   3   5   4   41.30    2.90
   5  -8   4   58.89    7.00
   9  -4  -4   29.00    6.30
  -5   9  -4   33.30    6.70
   5  -9   4   36.00    8.30
   4   5   4   26.50    2.30
  -5  10  -4  192.78   14.60
  10  -5  -4  177.58   13.00
   5 -10   4  189.78   17.80
  -4  10  -4   12.40    7.60
   4 -10   4   22.90   12.40
   9  -6  -4  193.08   12.10
  -3   9  -4  186.78   12.50
   3  -9   4  191.98   17.40
   6   3   4  188.18    7.20
   8  -6  -4   41.80    6.20
  -2   8  -4   30.70    6.00
   2  -8   4   48.10   10.10
   6   2   4   35.60    3.20
  -1   7  -4   55.09    5.80
   7  -6  -4   51.49    5.90
  -7   6   4   54.49    6.30
   6   1   4   58.69    3.70
   0   6  -4   10.40    4.20
   6  -6  -4   15.10    4.00
   6   0   4   13.80    2.30
  -6   6   4   13.60    4.00
   1   5  -4  111.39    8.40
   5  -6  -4  118.99    7.30
  -5   6   4  109.89    6.90
   6  -1   4  113.99    5.70
   4  -6  -4  205.18    9.30
   2   4  -4  200.08   11.80
  -4   6   4  200.28    9.30
   6  -2   4  195.68    8.60
  -6   3  -4 1657.53   57.79
   3  -6  -4 1614.84   57.89
   6  -3   4 1696.83   57.79
  -3   6   4 1692.63   57.89
   2  -6  -4  206.58    8.90
  -6   4  -4  204.88    9.30
  -2   6   4  201.48    8.90
   6  -4   4  196.48    9.30
   1  -6  -4  105.09    5.70
  -6   5  -4  105.59    6.70
   6  -5   4  112.49    7.00
  -1   6   4  106.59    5.80
  -6   6  -4    6.10    3.90
   0   6   4   13.60    2.50
   6  -6   4   14.00    4.00
  -6   7  -4   56.69    6.10
   6  -7   4   51.49    6.00
   1   6   4   52.89    4.10
  -6   8  -4   34.90    6.20
   8  -2  -4   46.30    5.90
   2   6   4   31.90    3.80
   6  -8   4   41.20    6.80
   9  -3  -4  194.18   12.10
  -6   9  -4  178.18   12.80
   3   6   4  190.08    7.80
   6  -9   4  189.78   12.70
  10  -4  -4   17.00    7.70
  -6  10  -4   -0.30    7.40
   4   6   4   12.90    2.50
   6 -10   4   20.70    9.70
  -3  10  -4   20.80    8.10
   7   3   4   23.50    3.40
   3 -10   4   21.80   15.20
  -2   9  -4   35.20    6.70
   9  -7  -4   30.90    7.30
   7   2   4   36.20    4.20
   8  -7  -4  380.26   17.60
  -1   8  -4  377.36   17.10
   7   1   4  384.56   14.40
   0   7  -4   61.69    6.50
   7  -7  -4   65.09    7.60
  -7   7   4   56.29    6.30
   7   0   4   55.89    4.70
   1   6  -4   48.70    6.10
   6  -7  -4   47.90    5.70
  -6   7   4   55.09    5.80
   7  -1   4   49.70    4.80
   5  -7  -4  400.16   16.60
   2   5  -4  428.16   18.70
   7  -2   4  397.96   15.70
  -5   7   4  399.86   16.40
   3   4  -4   99.29   10.30
   4  -7  -4  128.09    7.70
  -7   3  -4  117.29    7.10
   7  -3   4  108.09    6.80
  -4   7   4  119.39    8.00
  -7   4  -4  114.09    7.30
   3  -7  -4  114.59    7.20
  -3   7   4  122.49    7.10
   7  -4   4  108.89    7.20
   2  -7  -4  418.26   15.90
  -7   5  -4  381.66   16.30
   7  -5   4  396.36   16.10
  -2   7   4  399.46   15.60
  -7   6  -4   60.19    6.00
   7  -6   4   61.59    6.00
  -1   7   4   49.60    5.10
  -7   7  -4   69.79    7.00
   7  -7   4   56.19    6.30
   0   7   4   55.19    5.20
   8  -1  -4  370.76   16.40
  -7   8  -4  368.66   17.10
   7  -8   4  346.87   17.00
   1   7   4  378.86   14.40
  -7   9  -4   35.40    7.30
   9  -2  -4   37.60    6.90
   7  -9   4   35.30    7.70
   2   7   4   36.60    4.00
  -7  10  -4   16.30    8.40
  10  -3  -4   22.10    7.50
   3   7   4   17.70    3.50
  -2  10  -4    9.20    8.00
  -1   9  -4   19.10    7.10
   8   1   4   25.10    4.00
   0   8  -4   25.90    6.30
   8  -8  -4   19.30    6.50
  -8   8   4   24.30    7.40
   8   0   4   23.20    4.00
   1   7  -4  382.06   17.30
   7  -8  -4  388.86   17.70
  -7   8   4  392.46   17.70
   8  -1   4  379.66   15.30
   6  -8  -4   34.40    6.00
   2   6  -4   28.30    6.40
  -6   8   4   34.60    5.90
   3   5  -4   47.40    8.20
   5  -8  -4   56.19    6.30
  -5   8   4   43.60    5.70
   8  -3   4   44.10    5.20
   4  -8  -4    0.20    4.40
  -8   4  -4   -2.30    4.40
   4   4  -4    4.00    6.20
  -4   8   4   11.70    4.20
   8  -4   4    6.00    3.80
   3  -8  -4   42.90    5.50
  -8   5  -4   45.00    6.00
   8  -5   4   46.10    5.60
  -3   8   4   45.70    5.20
  -8   6  -4   44.80    6.10
   2  -8  -4   32.70    5.60
   8  -6   4   38.40    6.00
  -8   7  -4  369.36   16.90
  -1   8   4  381.66   15.40
   8  -7   4  363.46   16.60
   8   0  -4   32.30    5.90
  -8   8  -4   22.50    6.90
   8  -8   4   15.20    6.50
   0   8   4   16.80    4.30
   9  -1  -4   26.50    6.80
  -8   9  -4   14.30    7.80
   1   8   4   24.20    4.60
  -8  10  -4   -0.60    8.60
  10  -2  -4   18.90    7.90
   2   8   4    3.20    4.30
   0   9  -4   29.90    7.70
  -9   9   4   45.60    9.60
   1   8  -4   15.70    6.80
   8  -9  -4   25.50    8.00
   9  -1   4   21.50    5.20
  -8   9   4   26.80    7.90
   7  -9  -4   50.99    7.90
   2   7  -4   27.00   11.30
  -7   9   4   25.60    7.20
   9  -2   4   38.10    5.60
   3   6  -4  179.88   13.30
   6  -9  -4  192.18   12.90
  -6   9   4  203.78   12.20
   9  -3   4  194.78   10.80
   4   5  -4   11.70    8.30
   5  -9  -4   40.70    6.90
   9  -4   4   34.60    6.00
  -5   9   4   36.60    6.40
   4  -9  -4   22.00    6.20
  -9   5  -4   21.80    6.50
  -4   9   4   29.90    5.80
   9  -5   4   37.80    6.20
   3  -9  -4  196.98   13.40
  -9   6  -4  200.78   13.00
   9  -6   4  207.38   11.80
  -3   9   4  195.78   11.10
  -9   7  -4   23.40    7.20
   9  -7   4   44.30    7.30
  -2   9   4   39.60    5.70
  -9   8  -4   10.30    7.60
   8   1  -4   22.30    7.00
  -1   9   4   23.50    5.50
   9   0  -4   32.70    7.90
  -9   9  -4   30.70    8.60
   0   9   4   29.20    5.80
   2   8  -4    8.40    7.40
  10  -2   4    9.50    6.70
  -8  10   4   20.00   13.20
   7 -10  -4   21.00    8.40
   3   7  -4   15.30    7.10
  10  -3   4   19.10    6.60
  -7  10   4   24.50    7.90
   6 -10  -4   29.50    8.90
   4   6  -4   18.20    8.10
  -6  10   4    6.00    7.10
  10  -4   4   12.40    6.10
   5 -10  -4  186.58   15.00
   5   5  -4  138.09   15.60
  10  -5   4  181.48   12.90
  -5  10   4  200.78   13.00
 -10   6  -4    5.60    7.90
  10  -6   4    7.20    7.20
  -4  10   4   16.90    6.80
 -10   7  -4   20.00    8.80
  -3  10   4   17.10    6.80
 -10   8  -4   22.30   10.00
  -2  10   4    1.20    6.30
   0   0  -5    0.60    2.20
  -1   0  -5  237.18    9.40
   0   1  -5  210.08   10.20
   1   0   5  251.37    9.60
  -1   1  -5  232.98    9.80
   0  -1  -5  226.98    9.70
   1  -1   5  239.58    9.70
  -1   2  -5    1.20    2.20
  -1  -1  -5   -2.90    1.20
   1  -2   5   -1.20    2.20
   1   1   5    5.60    2.10
   3  -2  -5   85.19    5.00
  -1   3  -5   86.99    5.90
   1  -3   5   84.09    5.90
   2   1   5   85.99    4.10
   2  -2  -5 2839.82   97.29
  -2   0  -5 2808.42   96.59
   0   2  -5 2850.61   98.29
   2   0   5 2870.61   96.89
  -2   1  -5    0.90    1.40
   1  -2  -5    2.70    1.50
   2  -1   5   -0.10    1.40
   0  -2  -5 2743.73   96.09
  -2   2  -5 2903.11   96.79
   0  -2  -5 2689.33   96.79
   2  -2   5 2968.70   96.79
  -2   3  -5   84.69    5.20
   2  -3   5   96.39    5.40
  -2   4  -5   -1.30    2.50
   4  -2  -5   -1.80    2.30
   2  -4   5   -3.20    2.50
   2   2   5   -0.50    1.40
   5  -3  -5  182.68    8.80
  -2   5  -5  183.38    9.10
   3   2   5  171.98    6.70
   2  -5   5  182.88    9.40
  -1   4  -5   86.09    6.00
   4  -3  -5   88.19    5.30
   3   1   5   84.19    3.80
   1  -4   5   85.39    6.90
   3  -3  -5   33.90    3.40
   0   3  -5   27.60    4.20
  -3   0  -5   34.00    1.70
   3   0   5   30.50    2.50
  -3   1  -5   90.39    4.10
   1   2  -5   81.69    6.20
   2  -3  -5   82.69    4.40
   3  -1   5   89.49    4.30
   1  -3  -5   93.39    4.30
  -3   2  -5   87.99    4.60
  -1   3   5   87.99    4.40
   3  -2   5   87.09    4.70
   0  -3  -5   33.90    3.50
  -3   3  -5   35.40    3.40
   0  -3  -5   35.90    2.10
   0   3   5   31.10    2.60
   3  -3   5   33.90    3.40
  -3   4  -5   82.29    5.40
   3  -4   5   87.99    5.30
   1   3   5   89.59    3.90
  -3   5  -5  175.28    8.60
   5  -2  -5  186.98    9.00
   3  -5   5  178.38    8.70
   2   3   5  173.88    6.70
  -3   6  -5    4.00    3.50
   3   3   5   -1.40    1.60
   3  -6   5    2.20    3.70
   7  -4  -5   36.10    5.00
  -3   7  -5   23.60    5.20
   4   3   5   28.20    2.10
   3  -7   5   28.00    5.90
   6  -4  -5  677.53   25.10
  -2   6  -5  692.03   25.40
   2  -6   5  653.53   26.10
   4   2   5  649.14   23.00
  -1   5  -5   17.20    4.10
   5  -4  -5   17.80    3.30
   4   1   5   15.30    1.70
   1  -5   5   15.90    5.00
   4  -4  -5 1489.65   51.19
   0   4  -5 1477.65   52.09
   4   0   5 1421.06   50.19
  -4   1  -5   87.69    4.00
   3  -4  -5   89.09    5.00
   1   3  -5   74.59    7.00
   4  -1   5   82.09    4.30
  -3   4   5   94.19    5.20
   2  -4  -5    1.20    1.70
  -4   2  -5   -1.20    1.60
   4  -2   5    0.00    1.70
  -2   4   5    0.70    1.80
   1  -4  -5   89.29    4.30
  -4   3  -5   89.39    5.10
  -1   4   5   85.19    4.50
   4  -3   5   83.19    5.00
  -4   4  -5 1484.75   50.79
   4  -4   5 1440.26   50.69
   0   4   5 1425.96   49.90
  -4   5  -5   11.60    3.40
   1   4   5   15.60    1.80
   4  -5   5   19.90    3.70
   6  -2  -5  676.33   25.10
  -4   6  -5  673.13   25.20
   2   4   5  655.43   23.10
   4  -6   5  663.23   25.10
  -4   7  -5   33.90    5.20
   7  -3  -5   31.40    4.80
   3   4   5   26.60    2.20
   4  -7   5   32.30    5.50
   8  -4  -5    4.60    4.60
  -4   8  -5    1.50    5.00
   4  -8   5   -4.00    6.10
   9  -5  -5   29.60    6.50
  -4   9  -5   25.40    7.00
   4  -9   5   34.10    9.60
  -3   8  -5   12.20    5.10
   8  -5  -5    4.30    4.80
   3  -8   5   15.30    7.50
   5   3   5    7.00    1.40
   7  -5  -5   13.30    4.40
  -2   7  -5    8.60    5.10
   5   2   5   11.10    1.60
   2  -7   5    2.60    6.80
   6  -5  -5   19.90    3.80
  -1   6  -5    9.20    4.10
   5   1   5   17.80    2.00
   1  -6   5   10.20    6.50
   5  -5  -5   53.99    6.00
   0   5  -5   67.59    6.40
   5   0   5   65.59    3.80
  -5   5   5   52.29    5.30
   1   4  -5   18.60    5.30
   4  -5  -5   19.70    3.50
   5  -1   5   14.10    2.30
  -4   5   5   16.00    3.30
  -5   2  -5  177.78    7.40
   3  -5  -5  171.18    8.00
   2   3  -5  172.78    9.80
   5  -2   5  171.58    7.60
  -3   5   5  175.08    8.10
   2  -5  -5  188.18    7.70
  -5   3  -5  166.68    7.80
  -2   5   5  174.48    7.70
   5  -3   5  169.78    7.80
   1  -5  -5   17.80    2.20
  -5   4  -5   13.60    3.40
  -1   5   5   18.00    2.50
   5  -4   5   13.60    3.00
  -5   5  -5   60.79    5.40
   5  -5   5   58.49    5.70
   0   5   5   62.59    3.90
  -5   6  -5   18.40    4.20
   1   5   5   20.40    2.40
   5  -6   5   19.10    4.10
  -5   7  -5   15.10    4.50
   7  -2  -5   15.50    4.50
   5  -7   5    8.90    4.50
   2   5   5   13.70    2.10
  -5   8  -5    6.80    5.50
   8  -3  -5   10.50    4.90
   3   5   5   10.40    1.90
   5  -8   5    6.20    5.60
   9  -4  -5   41.00    6.90
  -5   9  -5   36.70    7.80
   5  -9   5   36.70    8.80
   4   5   5   31.60    2.80
  -5  10  -5    8.10    7.70
  10  -5  -5    6.10    8.70
   5 -10   5    8.30   10.90
  -4  10  -5   59.79    9.00
   4 -10   5   65.99   14.30
  -3   9  -5    3.10    6.40
   9  -6  -5    7.10    6.60
   6   3   5    1.50    1.90
   3  -9   5    9.00   10.70
  -2   8  -5  223.48   12.40
   8  -6  -5  200.98   12.30
   2  -8   5  210.78   22.20
   6   2   5  205.08    8.20
   7  -6  -5   38.60    5.50
   6   1   5   38.40    3.60
   6  -6  -5    1.10    3.80
   0   6  -5  -11.70    4.30
  -6   6   5   -2.90    3.90
   6   0   5    4.90    2.20
   5  -6  -5   17.40    3.90
   1   5  -5   15.40    5.40
   6  -1   5   20.00    2.80
  -5   6   5   20.90    4.20
   2   4  -5  679.33   27.50
   4  -6  -5  674.43   25.10
  -6   2  -5  673.93   24.30
  -4   6   5  676.13   25.10
   6  -2   5  694.43   24.60
  -6   3  -5    1.50    2.70
   3  -6  -5    1.60    2.80
   6  -3   5    3.40    2.80
  -3   6   5   -0.50    2.80
  -6   4  -5  677.03   25.20
   2  -6  -5  676.83   24.70
  -2   6   5  697.33   24.80
  -6   5  -5   16.90    4.10
   1  -6  -5   13.50    2.50
   6  -5   5   18.60    3.90
  -1   6   5   19.20    3.00
   6  -6   5    7.50    4.00
   0   6   5    1.90    2.30
  -6   7  -5   23.90    5.50
   7  -1  -5   22.70    5.20
   6  -7   5   32.70    5.40
   1   6   5   39.30    4.00
  -6   8  -5  224.48   12.70
   8  -2  -5  219.08   11.90
   6  -8   5  185.98   12.00
   2   6   5  214.88    8.80
  -6   9  -5   -9.10    6.00
   9  -3  -5    8.30    6.40
   3   6   5    6.40    2.50
   6  -9   5    8.50    7.00
  10  -4  -5   48.10    8.70
  -6  10  -5   40.10    9.40
   4   6   5   49.40    4.20
   6 -10   5   58.79   11.50
  -3  10  -5   -8.30    7.30
   3 -10   5    6.00   16.50
   9  -7  -5   18.70    7.20
  -2   9  -5   27.00    7.50
   7   2   5   26.10    3.20
   8  -7  -5    0.70    5.60
  -1   8  -5   -0.40    5.70
   7   1   5    4.70    2.90
   7  -7  -5   78.39    9.00
  -7   7   5   96.69    9.10
   7   0   5   78.99    5.50
   6  -7  -5   25.20    5.20
   1   6  -5   36.20    6.60
   7  -1   5   38.60    3.90
  -6   7   5   28.60    5.10
   5  -7  -5   15.40    4.50
   2   5  -5    7.00    6.40
  -5   7   5   11.80    4.40
   7  -2   5   15.70    3.40
   3   4  -5   26.10    6.70
  -4   7   5   22.10    4.90
  -7   4  -5   34.40    4.60
   3  -7  -5   23.50    4.10
  -3   7   5   26.60    3.90
   7  -4   5   29.10    4.10
   2  -7  -5   12.50    3.70
  -7   5  -5    3.10    4.10
   7  -5   5   12.50    4.10
  -2   7   5    7.50    3.20
  -7   6  -5   35.00    5.40
   7  -6   5   34.90    5.40
  -1   7   5   37.60    4.10
  -7   7  -5   78.19    8.20
   7  -7   5   87.89    8.70
   0   7   5   81.29    6.10
  -7   8  -5    5.60    5.90
   8  -1  -5  -10.20    5.30
   7  -8   5   12.20    6.00
   1   7   5    3.70    3.20
   9  -2  -5   19.00    6.80
  -7   9  -5   22.90    7.80
   7  -9   5   20.00    7.50
   2   7   5   25.70    3.80
  10  -3  -5   -3.10    7.20
  -7  10  -5    7.90    8.80
   3   7   5    0.10    3.30
  -2  10  -5  -10.10    8.20
  -1   9  -5   -2.20    7.20
   8   1   5    1.50    3.60
   8  -8  -5  103.29   11.30
   0   8  -5  102.79   11.10
  -8   8   5   92.79    9.50
   8   0   5   95.79    7.20
   1   7  -5   -0.90    6.20
   7  -8  -5    3.40    5.90
   8  -1   5    0.80    3.60
  -7   8   5    0.20    5.60
   2   6  -5  211.98   14.30
   6  -8  -5  219.18   12.70
  -6   8   5  226.38   12.00
   8  -2   5  226.28   10.70
   5  -8  -5   16.80    5.40
   3   5  -5    8.60    7.70
   8  -3   5   10.80    4.20
  -5   8   5   10.20    4.60
  -8   4  -5    2.60    4.50
   4   4  -5   -5.20    6.40
   4  -8  -5    2.70    4.50
  -4   8   5   -4.50    4.10
   8  -4   5    0.90    4.00
  -8   5  -5   14.50    5.30
   3  -8  -5    8.60    4.60
   8  -5   5    3.40    4.50
  -3   8   5   13.20    4.40
   2  -8  -5  161.78   10.10
  -8   6  -5  214.28   11.80
   8  -6   5  194.48   11.30
  -2   8   5  209.98   10.40
  -8   7  -5    0.90    5.90
   8  -7   5   15.30    6.10
  -1   8   5    0.90    4.00
   8   0  -5  101.69   10.60
  -8   8  -5   87.19    9.10
   8  -8   5  115.49   11.40
   0   8   5   99.89    7.60
   9  -1  -5   -2.40    6.60
  -8   9  -5    3.60    8.20
   1   8   5   -0.10    4.10
  10  -2  -5    4.50    8.00
   2   8   5   -0.90    4.50
   0   9  -5    3.60    7.80
   1   8  -5    3.00    6.80
   8  -9  -5    5.00    7.50
   9  -1   5    2.20    4.90
  -8   9   5   -7.90    7.30
   7  -9  -5   22.30    7.50
   2   7  -5   12.00    6.90
  -7   9   5   25.60    7.30
   9  -2   5   26.40    5.40
   6  -9  -5    9.30    6.90
   3   6  -5   -0.90    7.60
  -6   9   5    4.30    5.80
   9  -3   5    0.20    4.80
   4   5  -5   28.10    9.40
   5  -9  -5   23.60    6.70
   9  -4   5   33.10    6.00
  -5   9   5   36.30    6.50
   4  -9  -5   33.80    6.70
   5   4  -5   34.10    8.60
  -9   5  -5   37.30    7.10
  -4   9   5   31.90    6.10
   9  -5   5   33.10    6.20
   3  -9  -5    8.30    6.80
  -9   6  -5   12.70    6.90
   9  -6   5    1.70    5.60
  -3   9   5   -5.80    5.00
  -9   7  -5   16.10    7.40
   9  -7   5   24.60    7.00
  -2   9   5   16.80    5.50
  -9   8  -5   -0.70    7.20
  -1   9   5    5.00    5.10
   9   0  -5    2.10    8.10
  -9   9  -5    5.60    8.90
   0   9   5    4.30    5.40
   2   8  -5    7.10    7.90
  10  -2   5    5.90    6.60
   7 -10  -5   21.90    9.10
   3   7  -5  -13.20    7.70
  10  -3   5    0.10    6.30
  -7  10   5    5.60    7.90
   4   6  -5   64.09   10.70
   6 -10  -5   57.79    9.80
  -6  10   5   54.09    8.40
  10  -4   5   69.19    8.30
   5 -10  -5   13.60    8.40
  10  -5   5    1.60    6.90
  -5  10   5    2.00    6.80
 -10   6  -5   56.59    9.60
  10  -6   5   54.39    8.20
  -4  10   5   51.99    8.10
 -10   7  -5   13.60    8.80
  -3  10   5    0.40    6.30
 -10   8  -5   -6.60   10.20
  -2  10   5   -4.50    6.40
   0   0  -6  193.18    9.10
   0   1  -6  144.79    7.70
  -1   0  -6  145.59    7.20
   1   0   6  138.49    7.20
   0  -1  -6  145.79    7.30
  -1   1  -6  136.99    7.50
   1  -1   6  139.69    7.30
  -1   2  -6   31.10    4.00
  -1  -1  -6   29.50    3.10
   1  -2   6   40.50    4.30
   1   1   6   28.70    3.60
  -2  -1  -6  108.69    4.00
  -2  -1  -6  108.69    4.00
  -1   3  -6  100.89    7.10
   3  -2  -6  102.79    6.50
   2   1   6  104.49    5.30
   1  -3   6   98.39    7.20
   2  -2  -6 2262.37   76.09
  -2   0  -6 2139.69   75.29
   0   2  -6 2216.48   77.09
   2   0   6 2197.28   75.69
  -2   1  -6   31.90    3.40
   1   1  -6   32.20    4.10
   1  -2  -6   33.20    3.10
   2  -1   6   29.80    3.50
   0  -2  -6 2126.69   75.29
  -2   2  -6 2277.67   75.39
   0  -2  -6 2121.19   74.49
   2  -2   6 2191.88   75.19
  -1  -2  -6  112.99    4.50
  -2   3  -6  105.69    6.30
  -1  -2  -6  106.59    4.20
   2  -3   6  103.99    6.40
   4  -2  -6  167.28    8.50
  -2   4  -6  166.98    8.50
   2  -4   6  164.98    8.80
   2   2   6  166.48    7.60
   5  -3  -6    0.10    3.10
  -2   5  -6   -1.80    3.40
   2  -5   6   -0.50    3.80
   3   2   6    1.70    1.90
  -1   4  -6  103.59    7.00
   4  -3  -6   94.29    6.00
   1  -4   6   97.19    7.50
   3   1   6   91.89    4.70
  -3   0  -6   16.40    1.80
   3  -3  -6   17.00    2.90
   0   3  -6    9.90    4.20
   3   0   6   14.10    2.10
   2  -3  -6  116.39    5.70
   1   2  -6  102.89    7.10
  -3   1  -6  109.59    5.10
   3  -1   6  103.49    5.30
   1  -3  -6  106.19    5.00
  -3   2  -6   97.79    5.30
   3  -2   6  105.89    5.60
   0  -3  -6   18.60    1.80
   0  -3  -6   16.90    2.90
  -3   3  -6   14.80    3.00
   3  -3   6   16.60    3.00
  -3   4  -6   89.89    6.20
   3  -4   6   89.79    5.90
   5  -2  -6   -4.10    3.40
  -3   5  -6   -1.50    3.20
   3  -5   6    4.80    3.70
   6  -3  -6    8.50    3.90
  -3   6  -6    3.80    3.90
   3  -6   6    5.50    4.40
   3   3   6    0.70    2.60
   7  -4  -6    0.70    4.40
  -3   7  -6   -2.00    4.40
   4   3   6    3.00    2.20
   3  -7   6    2.00    5.70
   6  -4  -6  335.27   14.70
  -2   6  -6  337.87   15.30
   2  -6   6  348.97   16.30
   4   2   6  362.76   12.70
  -1   5  -6    2.90    4.20
   4   1   6   11.40    1.90
   1  -5   6   12.20    5.80
   0   4  -6  906.41   33.00
   4  -4  -6  844.12   31.40
   4   0   6  872.51   30.50
   3  -4  -6  102.39    5.70
  -4   1  -6   97.49    4.60
   1   3  -6   86.89    8.20
   4  -1   6   97.79    5.00
   2  -4  -6  167.58    7.60
  -4   2  -6  182.78    7.70
  -2   4   6  175.58    7.80
   4  -2   6  182.88    7.80
   1  -4  -6  101.19    4.90
  -4   3  -6   92.99    5.50
   4  -3   6   90.19    5.50
  -1   4   6   98.49    5.00
  -4   4  -6  892.61   31.40
   0  -4  -6  880.31   29.60
   0  -4  -6  813.52   30.00
   4  -4   6  884.71   31.20
   0   4   6  856.81   30.30
  -4   5  -6    8.30    3.50
   1   4   6   11.00    2.00
  -4   6  -6  359.86   14.90
   6  -2  -6  349.77   15.20
   4  -6   6  338.37   14.90
   2   4   6  339.47   12.70
   7  -3  -6   10.90    4.60
  -4   7  -6    6.20    4.70
   4  -7   6    0.50    5.10
   8  -4  -6   52.19    7.00
  -4   8  -6   47.10    6.90
   4  -8   6   62.69    8.50
  -4   9  -6    7.40    7.00
   9  -5  -6    8.10    6.40
   4  -9   6   11.10    9.30
   8  -5  -6   14.00    5.70
  -3   8  -6   23.60    6.40
   3  -8   6   12.40    7.90
   5   3   6   17.80    2.60
   7  -5  -6    6.10    4.50
  -2   7  -6   -1.30    4.40
   2  -7   6    8.20    8.10
   5   2   6   -0.30    1.80
  -1   6  -6   41.50    5.80
   6  -5  -6   43.10    5.10
   1  -6   6   36.00    8.10
   5   1   6   43.50    3.50
   5  -5  -6    2.50    3.20
   0   5  -6    2.80    4.60
   5   0   6    0.20    1.90
  -5   1  -6    8.30    1.70
   1   4  -6   12.90    5.50
   4  -5  -6    8.70    3.00
  -4   5   6    8.40    3.40
   5  -1   6    7.40    2.20
   2   3  -6   10.00    4.70
   3  -5  -6    0.10    2.70
  -5   2  -6    3.80    2.20
  -3   5   6    3.40    2.90
   5  -2   6    0.40    2.20
   2  -5  -6    3.60    2.50
  -5   3  -6    2.90    2.70
  -2   5   6    0.70    2.40
   5  -3   6    2.40    2.70
  -5   4  -6    8.20    3.10
   1  -5  -6   11.30    2.20
  -1   5   6    9.20    2.50
   5  -4   6   11.90    3.30
  -5   5  -6    0.00    3.30
   0   5   6    4.00    2.10
   5  -5   6    0.00    3.10
   1   5   6   55.49    3.90
   5  -6   6   40.60    5.20
  -5   7  -6   -1.50    4.60
   7  -2  -6    3.10    4.80
   2   5   6    3.50    2.00
   5  -7   6    7.40    5.20
  -5   8  -6    7.60    5.60
   8  -3  -6   20.90    6.00
   5  -8   6   24.70    6.90
   3   5   6   18.40    2.50
  -5   9  -6    2.80    7.00
   9  -4  -6   -2.50    6.50
   5  -9   6    3.70    8.50
  -5  10  -6   -3.40    8.20
   5 -10   6    4.80   11.00
  -4  10  -6   14.70    8.80
   4 -10   6   44.00   14.80
  -3   9  -6   -2.90    6.90
   9  -6  -6   -3.30    6.40
   3  -9   6    7.70   11.20
   6   3   6    5.60    2.60
  -2   8  -6   81.49    8.50
   8  -6  -6   78.09    9.00
   6   2   6   76.89    4.90
   2  -8   6   87.49   12.50
   7  -6  -6   10.70    5.10
  -1   7  -6    1.60    5.60
   6   1   6    3.40    2.30
   6  -6  -6   76.39    7.40
   0   6  -6   84.09    8.00
   6   0   6   72.79    4.90
   1   5  -6   51.69    7.50
   5  -6  -6   57.69    6.00
   6  -1   6   41.10    4.40
  -5   6   6   39.20    5.10
   4  -6  -6  333.17   15.00
   2   4  -6  359.96   17.20
  -6   2  -6  338.57   13.20
   6  -2   6  347.47   13.60
  -4   6   6  336.17   14.10
   3  -6  -6    6.90    3.10
   3   3  -6    5.30    4.90
  -6   3  -6    4.00    3.00
   6  -3   6    5.50    3.00
  -3   6   6   12.50    3.40
   2  -6  -6  343.67   13.70
  -6   4  -6  354.66   14.40
   6  -4   6  352.56   14.30
  -2   6   6  338.07   13.80
  -6   5  -6   53.69    5.50
   1  -6  -6   42.50    4.50
   1  -6  -6   42.80    3.90
   6  -5   6   43.00    4.90
  -1   6   6   45.30    4.70
  -6   6  -6   70.19    7.80
   6  -6   6   70.79    7.00
   0   6   6   80.79    5.30
   7  -1  -6   -0.40    5.10
  -6   7  -6    6.30    5.20
   6  -7   6   12.20    5.20
   1   6   6   11.00    2.90
  -6   8  -6   86.29    8.70
   8  -2  -6   77.99    9.10
   2   6   6   78.29    5.30
   6  -8   6   91.89   10.60
  -6   9  -6    1.90    7.30
   9  -3  -6   -0.40    6.90
   3   6   6   -0.20    2.70
   6  -9   6  -14.40    7.10
  -6  10  -6   -1.40    9.20
  10  -4  -6    5.70   13.60
   6 -10   6   11.00   10.70
  -3  10  -6    8.40    8.70
  -2   9  -6    0.50    7.40
   7   2   6    4.60    3.10
   8  -7  -6   -1.70    6.30
  -1   8  -6    5.20    6.00
   7   1   6   -3.50    2.90
   0   7  -6    8.60    6.30
   7  -7  -6   20.20    5.70
   7   0   6   10.20    3.10
   1   6  -6   11.40    6.20
   6  -7  -6   -0.20    5.10
   7  -1   6   10.50    3.20
  -6   7   6    8.90    4.70
   2   5  -6   -2.90    6.90
   5  -7  -6    4.90    4.50
  -5   7   6   -2.50    3.90
   7  -2   6    1.70    3.30
   3   4  -6   -2.80    6.40
   4  -7  -6    8.30    4.20
  -7   3  -6    5.40    3.60
   7  -3   6   11.60    3.80
  -4   7   6    3.90    3.90
   3  -7  -6    9.30    3.80
  -7   4  -6    4.90    3.90
   7  -4   6    2.60    3.50
  -3   7   6    8.40    4.20
   2  -7  -6    0.40    3.40
  -7   5  -6    3.10    4.50
   7  -5   6    4.70    4.10
  -2   7   6    1.00    3.30
  -7   6  -6    6.60    4.80
   7  -6   6    8.30    4.80
  -1   7   6    8.50    3.50
  -7   7  -6   13.70    5.80
   7  -7   6   18.00    5.90
   0   7   6    9.60    3.70
  -7   8  -6   -2.90    6.00
   8  -1  -6   14.30    6.30
   7  -8   6   -3.90    6.30
   1   7   6   -2.40    3.30
   9  -2  -6    0.80    7.00
  -7   9  -6   -7.70    7.50
   7  -9   6    1.40    7.30
   2   7   6   -1.10    3.30
  -7  10  -6  -18.80   13.90
  10  -3  -6   -0.20    8.10
   3   7   6    9.50    4.30
  -1   9  -6   -0.80    8.10
   8   1   6    6.10    4.00
   8  -8  -6   25.10    7.60
   0   8  -6   30.90    7.90
   8   0   6   28.30    4.70
   7  -8  -6    7.90    6.20
   1   7  -6   -7.40    6.80
   8  -1   6    1.20    4.10
  -7   8   6    0.60    6.10
   6  -8  -6   82.59    9.70
   8  -2   6   87.59    7.40
  -6   8   6   91.29    8.90
   3   5  -6   20.60    9.10
   5  -8  -6   15.50    5.70
   8  -3   6   23.00    4.60
  -5   8   6   24.30    5.60
   4  -8  -6   54.49    6.30
   4   4  -6   36.70    8.70
  -8   4  -6   46.50    6.00
   8  -4   6   45.60    5.70
  -4   8   6   65.69    7.50
   3  -8  -6   20.50    5.30
  -8   5  -6   16.70    5.60
   8  -5   6   22.20    5.10
  -3   8   6   10.60    4.60
  -8   6  -6   73.29    7.60
   2  -8  -6   75.09    6.90
  -2   8   6   87.79    7.40
   8  -6   6   72.29    8.40
  -8   7  -6   -8.60    5.80
   8  -7   6   -5.60    5.70
   8   0  -6   35.10    7.60
  -8   8  -6   30.40    8.00
   8  -8   6   27.90    7.10
   0   8   6   36.50    5.20
  -8   9  -6    8.80    8.50
   9  -1  -6    4.40    7.60
   1   8   6   -0.70    4.40
   0   9  -6   16.50    9.10
   9   0   6    4.50    5.60
   1   8  -6    6.90    8.30
   9  -1   6   10.60    5.40
  -8   9   6   10.60    8.20
   7  -9  -6    5.80    7.20
   2   7  -6  -13.20    8.00
   9  -2   6   -3.80    4.90
  -7   9   6    7.20    6.90
   3   6  -6    2.60    8.90
   6  -9  -6   11.10    7.50
  -6   9   6    8.80    6.30
   9  -3   6    1.40    5.30
   5  -9  -6   -0.50    6.70
  -5   9   6    5.00    5.80
   9  -4   6   -8.00    5.20
   4  -9  -6   17.10    6.80
   5   4  -6    3.40   12.30
  -9   5  -6   -2.50    6.40
   9  -5   6    0.10    5.60
  -4   9   6    3.10    5.50
   3  -9  -6   -1.30    6.60
  -9   6  -6   -3.70    7.10
  -3   9   6    5.30    5.30
   9  -6   6   -5.80    5.70
  -9   7  -6    8.60    7.50
  -2   9   6    4.50    5.50
   9  -7   6   15.70    6.80
  -9   8  -6    4.30    8.30
  -1   9   6    3.40    5.50
  -9   9  -6  -14.80    9.10
   9   0  -6   -2.80    8.60
   0   9   6   -4.10    5.40
   3   7  -6    6.90    9.20
   7 -10  -6   21.20   10.00
  -7  10   6   -6.20    9.50
  10  -3   6   11.70    7.00
   6 -10  -6   13.30    9.00
   4   6  -6   28.40   10.80
  -6  10   6   21.50    8.20
  10  -4   6    2.30    6.50
   5   5  -6  -21.70   14.40
   5 -10  -6    5.50    9.10
  -5  10   6    2.40    6.60
  10  -5   6    7.80    7.00
   4 -10  -6   23.30   14.20
 -10   6  -6   22.10    9.20
   6   4  -6   23.30   10.90
  -4  10   6   26.10    7.30
 -10   7  -6   -3.80    9.30
  -3  10   6    4.70    7.10
   0   0  -7    0.80    3.20
  -1   0  -7 1952.70   64.89
   0   1  -7 1786.72   65.19
   1   0   7 1823.72   64.89
   1   0  -7 1797.52   63.59
   0  -1  -7 1752.42   63.49
  -1   1  -7 1895.11   63.89
   1  -1   7 1812.62   63.69
  -1  -1  -7    0.00    2.60
  -1   2  -7    1.60    3.20
   1  -2   7    0.20    3.20
   1   1   7   -3.80    3.00
  -1   3  -7  928.91   33.50
  -2  -1  -7  919.41   31.10
  -2  -1  -7  889.81   31.20
   1  -3   7  890.51   33.40
   2   1   7  875.51   32.20
   0   2  -7   13.10    4.20
   2   0   7   18.10    3.10
   1   1  -7   -1.20    3.20
  -2   1  -7   -2.60    2.20
   1  -2  -7   -1.40    2.20
   2  -1   7   -1.40    2.40
  -2   2  -7   13.10    3.50
   0  -2  -7   17.80    3.40
   0  -2  -7   14.30    2.30
   2  -2   7   15.30    3.20
  -1  -2  -7  871.31   30.90
  -1  -2  -7  910.91   31.40
  -2   3  -7  905.71   32.80
   2  -3   7  889.01   32.60
  -2   4  -7   -2.90    3.40
   2   2   7   -4.00    2.80
   2  -4   7    2.00    3.60
  -2   5  -7  704.63   26.60
   5  -3  -7  664.23   27.00
   2  -5   7  672.43   26.80
   3   2   7  714.93   25.00
  -1   4  -7  977.40   36.70
   4  -3  -7 1020.80   36.00
   3   1   7  997.80   34.90
   1  -4   7  958.20   37.00
   0   3  -7    7.40    4.50
  -3   0  -7    9.00    1.70
   3  -3  -7   10.50    3.00
   3   0   7    7.30    2.30
  -3   1  -7  914.11   31.80
   1   2  -7  878.91   33.50
   2  -3  -7  872.51   32.10
   3  -1   7  933.11   32.10
   1  -3  -7  869.31   31.80
  -3   2  -7  926.11   32.30
   3  -2   7  911.51   32.30
  -3   3  -7    4.20    3.10
   0  -3  -7    7.10    3.00
   0  -3  -7    8.30    1.70
   3  -3   7    3.50    2.90
  -3   4  -7  967.10   34.90
   3  -4   7  950.40   34.80
  -3   5  -7  753.32   27.50
   5  -2  -7  686.93   28.80
   6  -3  -7   -1.30    4.20
   3  -6   7    1.20    4.60
   3   3   7   -4.60    3.20
   7  -4  -7  137.99    9.40
  -3   7  -7  129.79    9.80
   3  -7   7  133.99   11.80
   4   3   7  130.69    7.20
   6  -4  -7   12.00    4.40
   2  -6   7    2.10    5.40
   4   2   7    8.40    2.60
  -1   5  -7   -1.20    4.60
   5  -4  -7    6.30    3.60
   1  -5   7   -2.60    5.50
   4   1   7    8.00    2.30
   4  -4  -7   23.80    3.90
   0   4  -7   15.40    5.10
   4   0   7   23.20    2.80
   1   3  -7  960.90   36.90
  -4   1  -7  988.70   34.30
   3  -4  -7  981.80   35.10
   4  -1   7  993.30   34.70
   2  -4  -7    3.70    2.30
  -4   2  -7    4.00    2.50
   2   2  -7    3.60    4.10
   4  -2   7    2.60    2.40
   1  -4  -7  971.10   34.50
  -4   3  -7  998.50   35.40
   4  -3   7  991.60   35.30
  -4   4  -7   26.30    4.20
   0  -4  -7   20.90    3.10
   0  -4  -7   20.60    2.30
   4  -4   7   24.30    4.00
  -4   5  -7    3.60    4.10
   4  -5   7   -0.20    3.70
   6  -2  -7    0.90    4.40
  -4   6  -7    4.60    4.60
   4  -6   7   12.20    4.80
   7  -3  -7  132.39    9.90
  -4   7  -7  123.59   10.10
   4  -7   7  124.69   10.00
   8  -4  -7    2.30    5.90
  -4   8  -7    2.40    5.90
   4  -8   7   -7.10    7.20
  -4   9  -7   73.09    9.40
   9  -5  -7   80.59    9.10
   4  -9   7   72.09   11.70
   8  -5  -7  206.88   12.70
  -3   8  -7  197.78   13.00
   3  -8   7  188.18   16.10
   5   3   7  178.48    8.90
  -2   7  -7    8.90    5.50
   7  -5  -7   15.50    5.20
   5   2   7    5.00    2.60
   2  -7   7    7.70    8.20
   6  -5  -7  301.57   13.90
   5   1   7  302.37   11.80
   0   5  -7  187.38   12.00
   5  -5  -7  191.18    9.60
   5   0   7  189.08    8.20
   1   4  -7    7.60    5.70
   4  -5  -7    5.40    3.70
  -5   1  -7    4.90    1.80
   5  -1   7    0.10    2.30
   3  -5  -7  701.63   26.60
  -5   2  -7  754.82   26.20
   2   3  -7  728.43   28.60
   5  -2   7  726.43   26.40
  -5   3  -7  729.23   26.50
   2  -5  -7  709.93   26.10
   5  -3   7  720.23   26.50
  -2   5   7  736.43   26.30
   1  -5  -7    3.80    2.20
   1  -5  -7    1.40    3.00
  -5   4  -7    3.70    3.50
  -1   5   7    2.10    2.60
   5  -4   7    7.20    3.30
  -5   5  -7  180.58    9.90
   5  -5   7  193.48    9.80
   0   5   7  199.58    8.50
  -5   6  -7  291.57   14.00
   5  -6   7  297.37   13.90
   1   5   7  289.57   11.50
   7  -2  -7    6.50    5.30
  -5   7  -7    4.60    5.40
   5  -7   7   11.70    5.50
  -5   8  -7  181.58   12.40
   8  -3  -7  194.28   12.60
   5  -8   7  203.98   14.00
   9  -4  -7   88.29    9.60
  -5   9  -7   66.39    9.40
   5  -9   7   81.89   11.00
  -5  10  -7    7.20    9.30
   5 -10   7   15.00   13.00
  -4  10  -7  -11.60    8.90
   4 -10   7   19.30   15.10
  -3   9  -7   -8.90    7.40
   9  -6  -7    5.20    7.50
   6   3   7    3.40    3.70
   3  -9   7   20.80   12.40
   8  -6  -7    5.80    5.90
  -2   8  -7   14.60    7.00
   2  -8   7   19.30   11.10
   6   2   7   15.00    3.30
  -1   7  -7  261.27   14.80
   7  -6  -7  240.98   13.60
   6   1   7  262.67   10.60
   6  -6  -7    9.20    4.60
   0   6  -7   -2.90    9.70
   6   0   7    5.80    2.80
   1   5  -7  316.17   16.30
   5  -6  -7  283.67   13.50
   6  -1   7  289.17   12.00
   2   4  -7    8.30    6.70
   4  -6  -7    8.50    3.90
  -6   2  -7    9.00    2.90
   6  -2   7    6.50    3.10
   3  -6  -7    5.50    3.50
  -6   3  -7   -0.60    3.20
   3   3  -7    1.20    5.10
  -3   6   7    3.90    3.30
  -6   4  -7    6.30    3.70
   2  -6  -7   11.40    3.20
  -2   6   7    1.70    3.10
   6  -4   7    6.60    3.60
   1  -6  -7  291.37   11.10
  -6   5  -7  310.57   13.60
   1  -6  -7  252.37   11.50
  -1   6   7  304.07   12.10
   6  -5   7  295.87   13.20
  -6   6  -7    4.30    4.80
   0   6   7   -0.90    2.80
   6  -6   7    6.30    4.60
  -6   7  -7  279.37   14.40
   1   6   7  267.87   11.30
   6  -7   7  259.77   14.20
  -6   8  -7   10.60    6.90
   8  -2  -7   13.70    6.70
   6  -8   7   20.50    7.40
   2   6   7   15.90    3.30
   9  -3  -7    6.00    7.50
  -6   9  -7    5.20    7.90
   6  -9   7    5.40    8.20
  -6  10  -7   20.00   14.50
  -2   9  -7   13.80    8.70
   7   2   7   17.90    4.10
   8  -7  -7   -2.80    6.80
  -1   8  -7    2.40    7.00
   7   1   7    3.30    3.40
   0   7  -7  132.09   12.30
   7  -7  -7  130.39   11.00
   7   0   7  129.59    7.50
   6  -7  -7  263.67   13.20
   1   6  -7  264.37   16.40
   7  -1   7  252.77   11.30
   2   5  -7   -9.60    7.20
   5  -7  -7   -1.20    4.60
  -5   7   7    5.70    4.90
   3   4  -7  124.49   12.60
  -7   3  -7  134.79    8.30
   4  -7  -7  141.89    9.00
  -4   7   7  121.89    8.80
   7  -3   7  139.99    8.30
  -7   4  -7  132.09    8.80
   3  -7  -7  136.19    8.50
  -3   7   7  126.19    8.20
   7  -4   7  137.79    8.70
   2  -7  -7   11.30    3.80
  -7   5  -7   -4.20    4.70
   7  -5   7    3.20    4.40
  -2   7   7    1.90    3.40
  -7   6  -7  259.87   13.70
  -1   7   7  259.37   11.70
   7  -6   7  247.58   12.80
  -7   7  -7  123.99   10.50
   0   7   7  137.69    8.10
   7  -7   7  122.39   10.80
   8  -1  -7    7.20    6.90
  -7   8  -7    2.60    7.30
   7  -8   7    0.80    6.70
   1   7   7   -0.40    3.60
   9  -2  -7   13.60    7.90
  -7   9  -7   14.00    8.80
   2   7   7   23.40    4.40
  -1   9  -7   54.09    9.90
   8   1   7   41.80    5.40
   0   8  -7  -10.10    8.20
   8  -8  -7   -7.30    7.20
   8   0   7    1.90    4.30
   7  -8  -7    3.50    6.60
   1   7  -7    2.60    8.10
   8  -1   7   -4.60    4.00
   6  -8  -7   19.30    7.00
   2   6  -7   -3.70    8.40
   8  -2   7   15.10    4.60
  -6   8   7   19.30    6.40
   5  -8  -7  202.98   12.40
   3   5  -7  190.78   20.00
   8  -3   7  189.38   10.70
  -5   8   7  193.68   11.90
   4   4  -7    6.70    9.40
  -8   4  -7    4.70    5.20
   4  -8  -7    5.10    5.50
  -4   8   7   -4.10    4.40
   8  -4   7    4.00    4.60
  -8   5  -7  199.18   12.30
   3  -8  -7  192.08   11.20
   8  -5   7  188.68   11.50
  -3   8   7  194.48   10.80
  -8   6  -7   15.60    6.70
   2  -8  -7   10.10    3.70
   2  -8  -7   15.80    3.60
   8  -6   7   18.10    5.90
  -2   8   7   12.60    4.80
  -8   7  -7    4.20    6.70
   8  -7   7   -7.10    5.80
  -1   8   7   -4.60    4.40
  -8   8  -7   -3.00    7.90
   9  -1  -7   37.10    9.00
  -8   9  -7   28.90   10.30
   1   8   7   36.70    5.70
   1   8  -7   31.60   10.20
   9  -1   7   29.20    6.10
   2   7  -7    6.50   10.20
   7  -9  -7   25.90    8.60
  -7   9   7   17.50    8.10
   9  -2   7   14.30    5.90
   3   6  -7  -10.10    9.90
   6  -9  -7    3.10    7.50
   9  -3   7    2.50    5.40
  -6   9   7    5.00    7.20
   5  -9  -7   73.79    9.10
   4   5  -7   84.19   12.30
   9  -4   7   76.39    7.80
  -5   9   7   68.19    8.10
   4  -9  -7   76.29    8.60
  -9   5  -7   98.79    9.40
   5   4  -7   80.79   11.30
  -4   9   7   99.39   10.20
   9  -5   7   90.79    8.80
  -9   6  -7    3.30    7.60
   3  -9  -7    2.60    6.70
   9  -6   7    7.90    6.30
  -3   9   7    1.90    5.60
  -9   7  -7   21.20    8.60
  -2   9   7   24.40    6.10
  -9   8  -7   33.00    9.80
  -1   9   7   35.80    6.60
   4   6  -7   14.40   11.90
   6 -10  -7   13.60   10.00
  10  -4   7   -6.60    7.00
  -6  10   7    5.00    8.10
   5   5  -7  -10.90   10.90
   5 -10  -7   10.40    9.80
  -5  10   7    0.20    7.10
  10  -5   7    4.00    7.30
 -10   6  -7    9.50    9.70
   6   4  -7   11.80   10.70
  -4  10   7   -3.70    7.10
   0   0  -8 7383.86  251.97
   1  -1  -8  454.65   18.50
  -1   0  -8  469.55   18.30
   0   1  -8  464.35   18.90
   1   0   8  444.76   18.50
  -1   1  -8  469.95   18.60
   1   0  -8  452.75   18.40
   0  -1  -8  448.26   18.20
   1  -1   8  456.05   18.50
  -1   2  -8  322.07   14.50
  -1  -1  -8  335.87   13.70
   1  -2   8  302.87   14.20
  -1   3  -8  276.37   13.40
  -2  -1  -8  290.57   10.70
   2   1   8  265.67   11.90
   1  -3   8  241.58   13.20
  -2   0  -8  112.09    6.50
   0   2  -8  125.19    8.80
   2   0   8  103.19    6.90
  -2   1  -8  296.37   12.80
   1  -2  -8  286.37   12.50
   1   1  -8  297.87   13.40
   2  -1   8  294.57   12.60
   0  -2  -8  118.59    7.30
   0  -2  -8  116.39    6.40
  -2   2  -8  109.69    7.70
   2  -2   8  102.39    7.40
  -1  -2  -8  273.17   11.30
  -1  -2  -8  281.47   10.40
  -2   3  -8  270.77   12.70
   2  -3   8  248.78   12.30
  -2   4  -8 3683.93  125.59
   2   2   8 3655.43  124.79
   2  -4   8 3533.35  125.29
  -2   5  -8  129.99   10.10
   5  -3  -8  143.99    9.30
   2  -5   8  148.79   10.50
   3   2   8  153.48    8.30
   4  -3  -8  268.37   12.30
  -1   4  -8  238.98   13.10
   3   1   8  254.17   10.90
   1  -4   8  236.48   13.60
   0   3  -8  421.66   18.60
  -3   0  -8  416.16   15.40
   3  -3  -8  429.66   17.10
   3   0   8  411.86   16.30
   1   2  -8  283.17   13.80
   2  -3  -8  282.67   12.30
  -3   1  -8  299.67   11.90
   3  -1   8  285.37   12.10
  -3   2  -8  283.57   12.20
   1  -3  -8  280.17   11.40
   3  -2   8  270.97   11.90
   0  -3  -8  393.96   16.10
   0  -3  -8  404.36   14.90
  -3   3  -8  425.96   16.80
   3  -3   8  390.96   16.30
  -3   4  -8  252.67   11.90
   3  -4   8  235.58   12.00
  -3   5  -8  141.29    9.20
   3  -5   8  144.49    9.40
   6  -3  -8   72.99    8.00
  -3   6  -8   68.69    7.30
   3  -6   8   74.99    8.20
  -3   7  -8   54.79    7.50
   7  -4  -8   44.00    7.10
   4   3   8   41.60    5.10
   3  -7   8   37.60    8.10
   6  -4  -8   70.59    7.00
  -2   6  -8   57.09    7.40
   4   2   8   52.19    5.80
   2  -6   8   62.49    8.30
  -1   5  -8  165.88   11.40
   5  -4  -8  171.18    9.70
   4   1   8  177.68    8.40
   1  -5   8  160.48   12.10
   0   4  -8   97.89    9.10
   4   0   8   98.69    6.00
   3  -4  -8  257.57   11.60
  -4   1  -8  258.47   10.40
   1   3  -8  260.57   14.00
   4  -1   8  256.47   11.00
   2   2  -8 3394.46  123.69
   2  -4  -8 3567.24  122.49
  -4   2  -8 3706.83  122.49
   4  -2   8 3624.64  122.59
   1  -4  -8  257.77   10.60
  -4   3  -8  262.77   11.80
   1  -4  -8  261.47   11.70
   4  -3   8  260.37   11.50
   0  -4  -8   96.89    4.80
  -4   4  -8  105.19    7.70
   0  -4  -8  100.89    6.40
   4  -4   8  104.29    7.00
  -4   5  -8  165.08   10.30
   4  -5   8  181.38   10.30
  -4   6  -8   80.39    7.70
   6  -2  -8   75.59    8.00
   4  -6   8   63.29    7.30
  -4   7  -8   49.80    7.30
   7  -3  -8   48.70    7.00
   4  -7   8   50.89    7.90
  -4   8  -8  498.95   22.10
   8  -4  -8  472.05   21.10
   4  -8   8  443.96   23.00
  -4   9  -8   21.60    9.10
   9  -5  -8    4.60    8.30
   4  -9   8   26.20   11.80
   8  -5  -8   39.00    7.50
  -3   8  -8   33.50    7.90
   5   3   8   37.60    5.20
   3  -8   8   46.90   10.20
   7  -5  -8  193.08   12.40
  -2   7  -8  202.68   13.30
   5   2   8  192.48    9.40
   2  -7   8  180.68   15.90
  -1   6  -8   78.59    8.60
   6  -5  -8   93.19    8.90
   5   1   8  100.09    6.20
   0   5  -8   62.39    8.30
   5  -5  -8   61.99    6.70
   5   0   8   62.79    5.30
   4  -5  -8  173.38    9.40
   1   4  -8  172.58   11.90
  -5   1  -8  172.08    7.20
   5  -1   8  166.18    8.30
  -5   2  -8  160.38    7.80
   3  -5  -8  151.28    8.10
   2   3  -8  145.49   10.40
   5  -2   8  144.49    7.70
   2  -5  -8  160.48    7.90
  -5   3  -8  149.29    8.30
   5  -3   8  133.69    8.60
   1  -5  -8  176.58    7.80
  -5   4  -8  174.58    9.60
   1  -5  -8  164.38    8.90
   5  -4   8  170.78    9.30
  -5   5  -8   61.79    6.70
   5  -5   8   65.29    6.90
  -5   6  -8   83.59    9.20
   5  -6   8   89.09    8.30
  -5   7  -8  183.98   12.60
   7  -2  -8  189.78   13.00
   5  -7   8  184.78   12.80
   8  -3  -8   34.50    7.70
  -5   8  -8   34.20    7.70
   5  -8   8   46.50    8.90
   9  -4  -8   12.40    7.80
  -5   9  -8    7.80    8.40
   5  -9   8   21.80    9.90
  -3   9  -8   30.30    8.90
   3  -9   8   38.30   14.10
   6   3   8   40.60    5.70
   8  -6  -8   26.70    7.40
  -2   8  -8   13.20    8.00
   6   2   8   41.70    4.90
   7  -6  -8   49.30    7.40
  -1   7  -8   42.50    8.30
   6   1   8   57.99    5.70
   6  -6  -8  910.21   35.50
   0   6  -8  994.60   37.60
   6   0   8  945.01   33.90
   5  -6  -8   95.79    7.70
   6  -1   8   79.49    6.20
  -6   2  -8   66.09    5.60
   2   4  -8   86.29    9.70
   4  -6  -8   69.39    6.90
   6  -2   8   67.99    6.00
  -6   3  -8   60.49    6.70
   3   3  -8   72.29    8.00
   3  -6  -8   75.29    6.80
   6  -3   8   77.09    6.50
  -6   4  -8   68.49    7.10
   2  -6  -8   67.79    6.00
  -2   6   8   67.99    6.20
   6  -4   8   59.59    6.30
   1  -6  -8   75.79    6.20
   1  -6  -8   91.59    5.30
  -6   5  -8   86.79    9.00
   6  -5   8   97.29    7.60
  -1   6   8   81.69    6.60
  -6   6  -8  935.11   35.20
   6  -6   8  907.51   34.70
   0   6   8  937.71   33.30
  -6   7  -8   45.40    7.90
   6  -7   8   47.60    7.50
   8  -2  -8   30.80    8.10
  -6   8  -8   34.80    8.20
   6  -8   8   23.90    7.90
   9  -3  -8   34.30    8.60
  -6   9  -8   38.90    9.20
   6  -9   8   33.30    9.60
  -2   9  -8    7.30    8.90
   7   2   8   14.10    4.90
  -1   8  -8   -0.30    8.20
   8  -7  -8   31.00    8.00
   7   1   8   20.60    4.50
   0   7  -8   16.30    8.60
   7  -7  -8   23.90    7.10
   7   0   8   25.80    4.40
   1   6  -8   49.00   10.00
   6  -7  -8   55.79    7.20
   7  -1   8   64.79    6.50
   5  -7  -8  185.08   11.90
   2   5  -8  200.98   16.10
   7  -2   8  205.38   10.30
  -7   3  -8   40.80    5.10
   4  -7  -8   54.89    6.20
   7  -3   8   47.50    5.50
  -4   7   8   44.30    5.80
   4   3  -8   64.69   13.40
   3  -7  -8   45.30    5.50
  -7   4  -8   42.30    5.90
  -3   7   8   41.40    5.30
   7  -4   8   43.40    5.70
   2  -7  -8  185.38    9.70
   7  -5   8  194.08   11.20
  -2   7   8  196.28   10.20
  -7   6  -8   57.99    7.60
  -1   7   8   54.29    5.50
   7  -6   8   50.59    6.90
  -7   7  -8   19.90    7.20
   7  -7   8   32.40    7.00
   0   7   8   30.00    4.80
   8  -1  -8    2.00    7.90
  -7   8  -8   15.70    8.10
   1   7   8   26.30    4.80
   7  -8   8   23.00    8.20
   9  -2  -8    3.70    8.90
  -7   9  -8    7.70    9.70
  -1   9  -8   10.40   10.40
   0   8  -8   -5.00    9.50
   7  -8  -8    4.40    7.60
   1   7  -8   18.60    9.50
   8  -1   8   23.50    5.40
   2   6  -8   33.80   10.50
   6  -8  -8   39.70    8.10
   8  -2   8   36.00    5.60
   5  -8  -8   38.20    7.20
   3   5  -8   44.90   11.00
   8  -3   8   38.30    6.00
  -5   8   8   35.20    7.00
   4   4  -8  485.75   24.40
  -8   4  -8  488.75   20.90
   8  -4   8  490.35   20.70
  -4   8   8  525.05   21.00
   3  -8  -8   42.00    6.30
  -8   5  -8   48.70    8.40
  -3   8   8   42.40    6.10
   8  -5   8   41.20    6.90
  -8   6  -8   33.10    7.80
   2  -8  -8   29.10    3.60
  -2   8   8   29.00    5.70
   8  -6   8   37.90    6.80
  -8   7  -8   23.00    8.10
   8  -7   8    9.00    6.90
  -1   8   8   24.90    5.70
  -8   8  -8    0.00    8.70
   0   8   8   16.10    5.40
   9  -1  -8    4.30    9.80
  -8   9  -8   10.90   10.40
   1   8   8    7.70    7.40
   1   8  -8   18.70   11.40
   9  -1   8   23.40    6.80
   7  -9  -8   17.00    9.30
   2   7  -8   -0.10   11.40
   9  -2   8   11.80    6.10
   3   6  -8   51.49   12.60
   6  -9  -8   38.80    9.30
   9  -3   8   34.70    6.80
   4   5  -8   46.90   11.70
   5  -9  -8   20.70    8.40
   9  -4   8   11.80    6.80
  -5   9   8   21.80    7.10
   5   4  -8   31.40   10.60
  -9   5  -8   17.10    7.80
   4  -9  -8   12.20    7.50
  -4   9   8   10.00    6.50
   9  -5   8   13.40    7.00
   3  -9  -8   25.40    7.10
  -9   6  -8   22.70    8.50
  -3   9   8   41.80    7.30
   9  -6   8   34.10    7.90
  -9   7  -8   16.20    9.60
  -2   9   8   11.70    6.40
  -9   8  -8   -1.40   10.30
  -1   9   8   17.40    6.70
  -5  10   8   20.30    8.60
   0   0  -9   -1.90    3.80
  -1   0  -9  440.56   18.00
   0   1  -9  422.76   18.50
   1  -1  -9  442.46   18.20
  -1   1  -9  453.35   18.00
   0  -1  -9  412.96   17.60
   1   0  -9  419.96   17.80
   1  -1   9  410.26   17.80
  -1  -1  -9    1.00    3.70
  -1   2  -9   -6.50    4.00
   1  -2   9   -1.30    4.20
  -2  -1  -9  444.66   16.40
  -1   3  -9  413.56   18.80
   2   1   9  417.26   17.50
   1  -3   9  419.56   19.10
  -2   0  -9   44.90    5.00
   0   2  -9   43.80    6.20
   2   0   9   35.00    4.80
   1  -2  -9    0.10    3.90
  -2   1  -9   -6.00    3.90
   1   1  -9   -1.40    4.00
   2  -1   9   -4.00    3.70
   0  -2  -9   48.30    5.40
   0  -2  -9   39.10    4.60
  -2   2  -9   33.30    5.70
   2  -2   9   40.30    5.50
  -2   3  -9  410.26   18.10
  -1  -2  -9  437.26   16.00
  -1  -2  -9  440.76   16.90
   2  -3   9  394.66   17.70
  -2  -2  -9    1.80    0.80
  -2   4  -9    2.00    4.90
   2  -4   9    2.90    4.80
  -2   5  -9   59.29   11.70
   5  -3  -9   80.69    8.90
   3   2   9   80.59    7.40
   2  -5   9   90.49    8.90
   4  -3  -9  228.68   12.10
  -1   4  -9  230.38   12.80
  -3  -1  -9  216.68    7.90
   3   1   9  223.78   10.90
   3  -3  -9   23.80    4.70
  -3   0  -9   34.30    3.70
   0   3  -9   30.60    6.10
   3   0   9   23.80    4.30
   2  -3  -9  445.26   17.50
  -3   1  -9  441.66   17.00
   1   2  -9  409.16   18.40
   3  -1   9  399.16   17.10
   1  -3  -9  427.56   16.70
   1  -3  -9  406.66   17.30
  -3   2  -9  428.36   17.40
   2   1  -9  430.66   18.30
   3  -2   9  410.86   17.10
   0  -3  -9   30.50    4.60
   0  -3  -9   25.60    3.20
  -3   3  -9   18.70    5.10
   3  -3   9   28.50    4.70
  -1  -3  -9  229.28    8.90
  -3   4  -9  228.78   12.70
  -1  -3  -9  258.97    9.60
   3  -4   9  241.18   12.40
  -3   5  -9   67.59    9.10
   3  -5   9   83.39    9.00
   6  -3  -9   -1.50    5.40
  -3   6  -9   -1.00    5.40
   3  -6   9   -3.20    6.20
  -3   7  -9   80.59    9.10
   7  -4  -9   98.79   10.30
   3  -7   9   65.89    9.90
   6  -4  -9    2.70    5.10
  -2   6  -9    3.80    6.40
   4   2   9   -2.00    3.90
   2  -6   9   11.50    7.40
   5  -4  -9   15.80    5.10
  -1   5  -9   18.40    6.60
   4   1   9   19.10    4.20
  -4   0  -9   20.40    2.20
   0   4  -9   22.10    6.50
   4  -4  -9   18.50    4.70
   4   0   9   18.30    3.90
   3  -4  -9  244.08   11.60
  -4   1  -9  237.08   10.30
   1   3  -9  231.88   13.70
   4  -1   9  232.58   11.00
   2   2  -9    0.10    4.70
   2  -4  -9    5.50    3.30
  -4   2  -9   -0.10    3.60
   4  -2   9    6.40    3.80
  -4   3  -9  229.88   11.50
   1  -4  -9  230.38   11.30
   1  -4  -9  247.68   10.10
   4  -3   9  207.08   12.00
  -4   4  -9   19.70    5.30
   0  -4  -9   24.60    4.10
   0  -4  -9   26.50    2.80
   4  -4   9   25.40    5.00
  -4   5  -9    8.00    5.60
   4  -5   9   15.90    5.40
   6  -2  -9    9.30    6.60
  -4   6  -9    3.50    5.50
   4  -6   9    2.30    5.60
  -4   7  -9   76.79    9.00
   7  -3  -9  117.49   11.70
   4  -7   9  105.69   12.30
   8  -4  -9    1.50    7.50
  -4   8  -9    4.00    7.80
   4  -8   9   -8.90    8.90
  -4   9  -9    4.40    8.90
   4  -9   9   22.10   12.20
  -3   8  -9   44.60    9.80
   8  -5  -9   57.59    9.30
   5   3   9   49.70    6.50
   3  -8   9   53.59   12.00
   7  -5  -9   14.30    6.60
  -2   7  -9    5.10    7.70
   5   2   9   14.10    4.60
   2  -7   9   10.80    9.30
   6  -5  -9  148.29   10.60
  -1   6  -9  165.18   13.30
   5   1   9  138.19    8.70
   5  -5  -9  149.99   10.00
   0   5  -9  161.28   13.00
   5   0   9  148.29    8.40
   1   4  -9   12.90    7.10
   4  -5  -9   15.60    4.50
  -5   1  -9   12.70    2.80
   5  -1   9   13.50    3.80
   2   3  -9   86.49   10.20
   3  -5  -9   88.09    7.00
  -5   2  -9   82.29    6.50
   5  -2   9   84.39    6.70
   3   2  -9   85.39    8.40
  -5   3  -9   81.09    7.30
   2  -5  -9   86.89    6.50
   5  -3   9   70.39    6.40
   1  -5  -9   11.50    4.30
  -5   4  -9    6.10    4.90
   1  -5  -9   10.70    3.20
   5  -4   9   16.60    4.80
  -5   5  -9  137.99   10.70
   5  -5   9  150.08   10.00
  -5   6  -9  155.98   11.70
   5  -6   9  131.79   10.50
   7  -2  -9    6.90    7.40
  -5   7  -9    7.90    6.50
   5  -7   9    8.40    6.80
  -5   8  -9   56.09    9.50
   8  -3  -9   48.50    8.60
   5  -8   9   56.89   10.00
  -5   9  -9    3.90    9.10
   5  -9   9   -4.70   10.90
  -3   9  -9   12.30   10.00
   6   3   9    2.30    6.00
   3  -9   9   -4.50   14.20
   8  -6  -9    1.10    7.70
  -2   8  -9   12.70    8.20
   6   2   9   -2.40    5.10
  -1   7  -9   41.50    9.60
   7  -6  -9   43.80    7.60
   6   1   9   41.10    5.40
   6  -6  -9    8.10    5.80
   0   6  -9    3.30    7.70
   6   0   9    2.00    3.80
   1   5  -9  166.68   13.30
   5  -6  -9  144.29   10.00
   6  -1   9  155.38    8.80
  -6   2  -9    3.80    3.50
   4  -6  -9   -0.80    4.70
   2   4  -9    5.60    7.70
   6  -2   9    1.20    3.50
  -6   3  -9   -4.20    4.00
   3  -6  -9   -2.20    4.20
   6  -3   9    1.30    4.00
  -6   4  -9    2.50    5.00
   2  -6  -9    5.50    3.80
   6  -4   9    3.00    4.40
   1  -6  -9  145.09    8.30
   1  -6  -9  146.89    7.30
  -6   5  -9  148.19   10.80
   6  -5   9  137.79   10.30
  -6   6  -9    4.40    6.40
   6  -6   9    7.90    5.80
  -6   7  -9   25.10    8.00
   6  -7   9   32.60    7.50
   8  -2  -9   -6.20    8.00
  -6   8  -9   -1.00    8.00
   6  -8   9   12.30    8.00
  -6   9  -9    8.70    9.90
  -2   9  -9   15.90   11.00
   7   2   9   18.10    9.90
  -1   8  -9  -15.80    9.50
   7   1   9    7.20    5.20
   0   7  -9    0.00    8.90
   7  -7  -9   -4.90    6.90
   7   0   9   11.70    4.60
   1   6  -9   45.00   10.60
   6  -7  -9   30.60    7.10
   7  -1   9   33.10    5.10
   2   5  -9   14.70    9.50
   5  -7  -9    6.40    6.30
   7  -2   9    6.20    4.40
  -7   3  -9   98.69    8.70
   4  -7  -9   85.29    9.60
   3   4  -9  119.99   11.70
   7  -3   9  101.79    8.40
   3  -7  -9  102.79    8.90
   4   3  -9   92.09   10.30
  -7   4  -9   97.69    9.60
   7  -4   9   97.49    8.40
   2  -7  -9    8.10    5.10
  -7   5  -9    3.90    6.20
   2  -7  -9   10.70    4.40
   7  -5   9   14.40    5.70
  -7   6  -9   37.90    7.70
   7  -6   9   33.40    6.80
  -7   7  -9    5.40    8.10
   7  -7   9   17.00    7.50
  -7   8  -9   -4.00    8.90
   8  -1  -9    2.50    8.70
  -7   9  -9   -6.40   10.30
   0   8  -9  -32.40   10.10
   8   0   9    3.70    5.60
   7  -8  -9   -1.50    8.60
   1   7  -9   -8.60   10.60
   8  -1   9    8.90    5.50
   2   6  -9    6.90   10.40
   6  -8  -9   -2.50    8.10
   8  -2   9    2.80    5.20
   3   5  -9   58.19   11.30
   5  -8  -9   43.80    8.20
  -8   3  -9   37.50    5.30
   8  -3   9   50.19    6.60
   4   4  -9    7.70    9.30
   4  -8  -9   -1.00    6.40
  -8   4  -9    5.90    6.20
   8  -4   9    4.40    6.00
   3  -8  -9   50.69    6.90
   5   3  -9   51.89    9.50
  -8   5  -9   71.89    9.90
   8  -5   9   57.59    7.60
  -8   6  -9   -3.60    7.70
   8  -6   9    5.50    6.40
  -8   7  -9   -6.60    8.20
  -8   8  -9    8.90    9.80
   2   7  -9   26.50   13.50
   7  -9  -9    9.40   12.10
   9  -2   9    4.10    6.90
   6  -9  -9   -8.30    9.40
   3   6  -9    6.10   12.40
   9  -3   9   13.90    6.80
  -9   4  -9    6.60    6.60
   4   5  -9   15.30   12.10
   5  -9  -9   29.00    9.40
   9  -4   9    9.30    6.70
   4  -9  -9   10.90    8.20
  -9   5  -9   -4.40    8.10
   5   4  -9   13.30   10.90
   9  -5   9    8.00    7.40
   3  -9  -9   -0.40    6.70
  -9   6  -9   -5.70    8.70
   3  -9  -9   10.20   10.50
  -3   9   9    9.10    7.20
  -9   7  -9   15.20   11.00
  -2   9   9   10.80    7.10
   0   0 -10   10.90    4.80
  -1   0 -10  170.08   10.40
   1  -1 -10  179.88   10.70
   0   1 -10  162.68   10.30
   0  -1 -10  163.98   10.10
  -1   1 -10  174.58   10.60
   1   0 -10  152.28   10.20
  -1  -1 -10  119.69    8.80
  -1   2 -10  135.89    9.90
   1  -2  10  104.29    9.30
  -2  -1 -10  118.69    7.90
  -1   3 -10  128.09   10.50
   1  -3  10  119.59    9.90
   2   1  10  115.59    8.90
  -2   0 -10  305.87   14.70
   0   2 -10  355.36   16.20
   2   0  10  329.37   15.10
   1   1 -10  109.09    8.80
  -2   1 -10   99.89    9.10
   1  -2 -10  119.29    8.70
   2  -1  10  100.59    8.20
   0  -2 -10  351.86   15.10
  -2   2 -10  340.27   15.80
   2   0 -10  337.67   16.00
   0  -2 -10  347.07   15.20
   2  -2  10  336.37   15.60
  -1  -2 -10  119.99    8.30
  -2   3 -10  130.39   10.40
  -1  -2 -10  125.49    7.50
   2  -3  10  108.29    9.00
  -2  -2 -10    3.10    1.70
  -2  -2 -10    5.50    2.40
  -2   4 -10   -3.00    5.30
   2  -4  10   -2.80    5.10
  -2   5 -10   21.00    6.60
   5  -3 -10   19.20    6.40
   2  -5  10   21.40    6.70
   3   2  10   16.00    5.20
  -3  -1 -10  106.49    5.40
  -3  -1 -10  122.39    5.40
   4  -3 -10  103.39    9.90
  -1   4 -10  101.79   14.60
   3   1  10   97.19    8.40
  -3   0 -10   86.69    6.80
   0   3 -10   93.09   10.10
   3  -3 -10   95.79    8.30
   3   0  10   89.29    7.90
   2  -3 -10  119.39    8.50
  -3   1 -10  129.39    8.70
   1   2 -10  116.29   10.10
   3  -1  10  123.89    8.70
  -3   2 -10  122.39    9.40
   1  -3 -10  129.59    8.30
   1  -3 -10  128.69    9.00
   2   1 -10  112.99    9.30
   3  -2  10  118.29    8.60
  -3   3 -10   81.19    9.20
   0  -3 -10   90.79    6.40
   0  -3 -10   95.29    7.80
   3  -3  10   87.09    8.00
  -1  -3 -10  100.49    5.00
  -1  -3 -10   96.19    6.50
  -3   4 -10   89.79    9.80
   3  -4  10   91.89    8.80
  -3   5 -10   24.80    6.60
   3  -5  10   23.10    6.50
  -3   6 -10   27.20    7.10
   6  -3 -10   36.70    7.50
   3  -6  10   34.90    8.30
  -3   7 -10   12.90    8.20
   7  -4 -10   26.00    7.80
   3  -7  10   33.60    9.50
  -2   6 -10   54.09    8.90
   6  -4 -10   60.29    8.20
   2  -6  10   59.39    9.50
   4   2  10   56.69    6.70
   5  -4 -10   45.70    6.90
  -1   5 -10   63.39    8.40
   4   1  10   39.40    5.70
   4  -4 -10  152.18   10.60
  -4   0 -10  149.19    7.00
   0   4 -10  173.48   12.50
   4   0  10  140.89    9.20
  -4   1 -10  115.19    7.50
   1   3 -10  100.29   10.50
   3  -4 -10   98.49    8.50
   4  -1  10  109.69    8.10
   2   2 -10    7.20    5.50
   2  -4 -10    1.20    3.90
  -4   2 -10    0.90    4.30
   4  -2  10    5.00    5.10
   1  -4 -10   89.09    8.00
   1  -4 -10  109.39    6.90
  -4   3 -10  102.99    9.00
   4  -3  10  100.79    8.60
   0  -4 -10  144.79    7.20
   0  -4 -10  157.78    8.90
  -4   4 -10  150.88   11.10
   4  -4  10  146.19   10.30
  -4   5 -10   44.90    7.40
   4  -5  10   41.90    6.70
  -4   6 -10   54.79    8.30
   6  -2 -10   66.99    9.10
   4  -6  10   49.90    8.40
  -4   7 -10   20.40    8.10
   7  -3 -10    7.60    8.20
   4  -7  10    8.40    8.70
  -4   8 -10    8.50    9.00
   8  -4 -10    7.90    8.70
   4  -8  10    9.90   10.10
  -4   9 -10   -4.00   10.30
   4  -9  10    8.50   13.50
  -3   8 -10   31.10   10.30
   8  -5 -10   23.20    9.00
   3  -8  10   40.50   12.30
  -2   7 -10   14.50    9.40
   7  -5 -10   21.20    8.00
   5   2  10   28.90    6.20
   6  -5 -10   51.49    8.40
  -1   6 -10   48.70    9.40
   5   1  10   62.49    6.50
   0   5 -10   17.00    8.10
   5  -5 -10   20.10    6.40
   5   0  10   11.70    4.50
   1   4 -10   54.79    8.70
  -5   1 -10   43.40    4.30
   4  -5 -10   50.69    6.70
   5  -1  10   47.50    5.90
   3  -5 -10   20.60    4.80
   2   3 -10   23.90    6.90
  -5   2 -10   22.60    4.80
   5  -2  10   21.10    4.70
  -5   3 -10   21.00    5.20
   2  -5 -10   27.60    4.70
   3   2 -10   25.00    7.10
   5  -3  10   20.20    5.00
  -5   4 -10   42.60    7.10
   1  -5 -10   51.79    4.80
   1  -5 -10   49.00    5.70
   5  -4  10   52.59    6.50
  -5   5 -10   16.60    6.50
   5  -5  10   15.00    6.20
  -5   6 -10   45.10    8.00
   5  -6  10   53.69    8.30
  -5   7 -10   21.20    8.60
   7  -2 -10   10.60    8.40
   5  -7  10   43.10    8.90
   8  -3 -10   12.50    8.40
  -5   8 -10   12.90    9.10
   5  -8  10   37.60   10.30
  -5   9 -10  -19.60    9.90
  -3   9 -10    9.30   11.60
  -2   8 -10   17.40    9.90
   6   2  10   22.70    6.90
  -1   7 -10   24.90    9.90
   7  -6 -10   16.20    8.00
   6   1  10   29.30    5.90
   0   6 -10   -7.30    8.10
   6  -6 -10    7.80    7.00
   6   0  10   -5.10    4.40
   1   5 -10   68.09   10.80
   5  -6 -10   64.99    7.90
   6  -1  10   55.59    6.00
  -6   2 -10   52.09    5.40
   2   4 -10   62.49    9.70
   4  -6 -10   57.79    7.10
   6  -2  10   59.49    6.40
   3  -6 -10   34.80    5.80
  -6   3 -10   28.30    6.10
   3   3 -10   32.20    7.60
   6  -3  10   45.50    6.00
   2  -6 -10   62.19    7.10
   2  -6 -10   56.89    5.90
  -6   4 -10   66.49    7.70
   6  -4  10   57.39    6.70
   1  -6 -10   60.39    5.70
   1  -6 -10   59.79    6.80
  -6   5 -10   57.49    7.90
   6  -5  10   62.19    7.80
  -6   6 -10   -7.90    6.60
   6  -6  10   -0.40    6.50
  -6   7 -10   18.20    8.50
   6  -7  10   16.20    7.90
   8  -2 -10    3.50    9.00
  -6   8 -10    0.30    9.50
   6  -8  10    0.20   12.00
  -6   9 -10    0.00   11.60
  -1   8 -10   13.50   11.40
   7  -7 -10   19.80    8.60
   0   7 -10    9.20   11.20
   7   0  10   -2.80    5.60
   1   6 -10   18.20   11.10
   6  -7 -10   16.00    8.00
   7  -1  10   25.00    5.40
   5  -7 -10   23.70    7.80
   2   5 -10   24.80   10.00
   7  -2  10   20.20    5.70
  -7   3 -10   23.40    5.80
   3   4 -10   18.20    8.80
   4  -7 -10   14.80    6.60
   7  -3  10   22.00    5.70
  -7   4 -10   28.60    7.10
   4   3 -10   29.20    8.80
   7  -4  10   17.00    6.20
   2  -7 -10   20.30    5.50
  -7   5 -10   23.30    7.80
   2  -7 -10   27.50    5.20
   7  -5  10   26.10    6.80
  -7   6 -10    7.80    8.10
   7  -6  10   22.00    7.40
  -7   7 -10   -5.80    9.00
   7  -7  10    1.00    7.50
   8  -1 -10   27.40   11.30
  -7   8 -10   17.90   10.10
   0   8 -10   -6.20   12.90
   8   0  10   -0.20    6.70
   1   7 -10   16.30   12.10
   7  -8 -10   18.30   10.00
   8  -1  10   17.50    6.50
   2   6 -10   42.90   12.30
   6  -8 -10   12.70    9.20
   8  -2  10   24.00    6.60
  -8   3 -10   18.00    5.10
   3   5 -10   31.60   11.50
   5  -8 -10   25.60    8.70
   8  -3  10   27.80    6.60
   4  -8 -10   -6.60    7.20
   4   4 -10   -1.70    9.30
  -8   4 -10    1.30    6.70
   8  -4  10   -4.00    6.10
   3  -8 -10   20.70    6.80
  -8   5 -10   28.20    8.80
   5   3 -10   13.40    9.90
   8  -5  10   21.10    7.20
  -8   6 -10   15.40    9.60
   8  -6  10    5.90    7.60
  -8   7 -10    5.50   10.60
  -8   8 -10    4.20   11.30
   6  -9 -10   -3.30   10.90
   3   6 -10    7.10   14.20
   9  -3  10    3.90    7.50
   5  -9 -10   30.60   11.00
   4   5 -10   35.50   13.50
  -9   4 -10    3.90   10.80
   9  -4  10   -7.20    7.40
   4  -9 -10   13.60    9.30
   5   4 -10    3.40   11.60
   6   3 -10    9.90   12.00
  -9   6 -10   13.30   10.80
   0   0 -11   -2.00    4.50
   1  -1 -11  219.18   12.40
   0   1 -11  236.28   12.80
  -1   0 -11  236.18   12.50
  -1   1 -11  224.58   12.60
   0  -1 -11  233.08   12.60
   1   0 -11  236.28   13.10
  -1  -1 -11   -1.10    4.70
  -1   2 -11   -1.10    5.00
   2  -1 -11   -0.20    5.00
  -1   3 -11  310.87   15.80
  -2  -1 -11  269.57   13.40
  -2   0 -11 1155.18   43.30
   0   2 -11 1258.17   44.50
   2   0  11 1141.59   43.50
   1   1 -11    0.40    5.10
  -2   1 -11    0.50    5.20
   1  -2 -11    2.40    5.10
  -2   2 -11 1243.38   44.00
   2   0 -11 1190.88   43.80
   0  -2 -11 1218.38   42.90
   0  -2 -11 1116.59   42.90
   2  -2  11 1094.09   43.40
  -1  -2 -11  283.57   13.40
  -1  -2 -11  283.07   13.10
  -2   3 -11  267.97   14.80
   2  -3  11  281.47   14.70
  -2  -2 -11    2.50    2.60
  -2  -2 -11   -2.80    3.30
  -2   4 -11    3.50    6.40
   2  -4  11   -8.10    5.70
  -2   5 -11   68.79    9.30
   5  -3 -11   60.59    8.60
   2  -5  11   78.29    9.80
  -1   4 -11  130.89   10.80
  -3  -1 -11  101.19    6.40
   4  -3 -11  112.09   11.10
  -3  -1 -11  104.09    6.40
   3   1  11   98.69    9.40
   0   3 -11   12.30    7.10
   3  -3 -11   10.00    5.80
  -3   0 -11    2.80    4.40
   3   0  11    5.30    5.00
   1   2 -11  307.77   15.30
  -3   1 -11  287.77   13.70
   2  -3 -11  223.68   18.80
   3  -1  11  229.88   15.10
   2   1 -11  250.97   14.80
   1  -3 -11  307.77   13.80
  -3   2 -11  273.87   14.60
   1  -3 -11  279.97   13.90
   3  -2  11  254.57   13.60
  -3   3 -11    0.10    6.30
   0  -3 -11   11.00    4.90
   0  -3 -11    6.10    4.10
   3  -3  11   -1.80    5.10
  -1  -3 -11  101.79    7.80
  -3   4 -11  101.99   11.30
  -1  -3 -11  107.59    6.10
   3  -4  11  100.59   10.70
  -3   5 -11   79.19    9.60
   3  -5  11   59.69    8.60
  -3   6 -11   -1.70    7.10
   6  -3 -11    1.40    7.30
   3  -6  11    5.30    8.20
   7  -4 -11   80.99   10.60
  -3   7 -11   99.69   11.60
   3  -7  11   93.19   12.40
   6  -4 -11  312.77   17.70
  -2   6 -11  315.27   18.50
   2  -6  11  328.27   19.60
   4   2  11  357.86   16.50
   5  -4 -11   -2.70    6.20
  -1   5 -11    9.60    7.30
   4   1  11   -2.60    5.40
   0   4 -11  613.84   25.50
   4  -4 -11  560.24   24.40
  -4   0 -11  585.64   21.30
   4   0  11  545.95   23.40
  -4   1 -11  127.29    8.90
   3  -4 -11  119.39   10.30
   1   3 -11  106.79   10.60
   4  -1  11   98.59    9.10
  -4   2 -11   -0.80    5.10
   2  -4 -11   -3.30    5.40
   2   2 -11    2.10    6.10
   4  -2  11   -8.40    4.50
  -4   3 -11   98.69   10.00
   3   1 -11  109.99   10.70
   1  -4 -11   91.19    9.00
   1  -4 -11  105.69    8.10
   4  -3  11  106.29    9.70
  -4   4 -11  533.75   23.90
   0  -4 -11  592.84   21.50
   0  -4 -11  523.55   20.40
   4  -4  11  532.55   22.90
  -4   5 -11   -3.20    6.50
   4  -5  11    8.00    7.00
  -4   6 -11  341.77   18.60
   4  -6  11  318.47   18.40
   7  -3 -11   88.69   11.40
  -4   7 -11  105.49   11.70
   4  -7  11  114.49   12.20
  -4   8 -11   -4.10    9.50
   4  -8  11   11.10   11.40
  -3   8 -11   11.50   10.70
   3  -8  11   17.10   12.40
   7  -5 -11    3.00    8.60
  -2   7 -11    1.00    9.30
   5   2  11   -0.40    6.70
   6  -5 -11   68.39   10.10
  -1   6 -11   92.79   11.90
   5   1  11   92.39    9.90
   0   5 -11  227.48   15.70
   5  -5 -11  175.68   13.50
   5   0  11  175.28   14.30
  -5   1 -11    7.20    4.00
   4  -5 -11    0.00    5.70
   1   4 -11    8.50    7.40
   5  -1  11    4.10    5.20
   2   3 -11   85.89    9.40
   3  -5 -11   78.09    7.90
  -5   2 -11   67.09    7.10
   5  -2  11   73.69    7.30
   3   2 -11   76.69    9.00
   2  -5 -11   73.79    8.00
   2  -5 -11   64.59    7.80
  -5   3 -11   83.29    9.60
   5  -3  11   74.39    8.70
  -5   4 -11    6.00    7.60
   1  -5 -11    2.30    4.90
   1  -5 -11    1.10    4.00
   5  -4  11   -0.50    5.60
  -5   5 -11  210.18   14.50
   0  -5 -11  166.38    7.00
   5  -5  11  185.38   12.40
  -5   6 -11   72.69   10.10
   5  -6  11   89.19    9.80
   7  -2 -11    0.80    9.10
  -5   7 -11   -8.80    8.70
   5  -7  11    1.00    8.90
  -5   8 -11   27.00   10.60
   5  -8  11   23.90   17.90
  -2   8 -11   84.19   13.50
   6   2  11   99.09   10.40
   7  -6 -11   13.90    8.90
  -1   7 -11   15.60   10.90
   6   1  11   22.20    8.30
   0   6 -11  -16.60    9.30
   6  -6 -11   -7.80    6.90
   6   0  11    1.60    5.70
   1   5 -11   96.09   11.30
   5  -6 -11   78.99    9.00
   6  -1  11   69.59    7.60
  -6   2 -11  348.47   15.60
   4  -6 -11  349.07   17.40
   2   4 -11  362.06   19.80
   6  -2  11  361.56   16.60
   3  -6 -11   -0.50    5.70
   3   3 -11    3.40    7.20
  -6   3 -11   -0.40    6.10
   6  -3  11   10.40    5.50
   2  -6 -11  323.87   16.40
   4   2 -11  340.67   18.40
   2  -6 -11  336.87   15.40
   6  -4  11  351.96   16.80
  -6   5 -11   81.89   10.10
   1  -6 -11   94.29    7.70
   1  -6 -11   70.59    6.80
   6  -5  11   94.39    9.50
  -6   6 -11   -9.80    8.00
   6  -6  11    4.50    7.40
  -6   7 -11   11.20    9.30
   6  -7  11   18.70    9.30
  -6   8 -11   60.99   12.20
  -1   8 -11  -19.90   12.60
   7   1  11    4.70    8.00
   0   7 -11   16.80   12.80
   7  -7 -11   25.80   11.00
   7   0  11   32.60    7.50
   6  -7 -11    3.30    8.60
   1   6 -11    3.70   11.30
   7  -1  11   14.20    6.40
   2   5 -11    5.50   10.00
  -7   2 -11    3.30    3.10
   5  -7 -11    1.70    7.80
   7  -2  11   -0.70    6.10
   4  -7 -11  114.99   12.40
   3   4 -11  102.29   12.30
  -7   3 -11   97.29   10.80
   7  -3  11   99.29   10.70
  -7   4 -11   89.89    9.80
   3  -7 -11  106.59   11.30
   4   3 -11  102.59   11.90
   7  -4  11   92.69   10.80
  -7   5 -11    1.00    8.40
   2  -7 -11    5.50    5.50
   2  -7 -11    6.10    5.40
   7  -5  11   -4.40    6.80
  -7   6 -11   14.30    9.30
   7  -6  11   17.30    8.20
  -7   7 -11   19.80   11.10
  -7   8 -11    4.70   12.00
   1   7 -11    6.40   12.90
   8  -1  11    6.70    7.80
   2   6 -11  110.09   15.90
   6  -8 -11   78.59   12.70
   8  -2  11   99.99    9.70
   3   5 -11   25.50   11.90
  -8   3 -11    7.90    5.20
   5  -8 -11   12.40   10.20
   8  -3  11   24.20    7.70
  -8   4 -11    1.90    7.60
   4   4 -11   18.40   11.20
   4  -8 -11  -13.90    8.40
   8  -4  11   -3.80    7.30
  -8   5 -11   11.20    9.70
   3  -8 -11   11.80    7.90
   3  -8 -11   14.50    7.50
   5   3 -11   25.60   11.30
   8  -5  11   22.70    8.00
  -8   6 -11   79.19   12.00
  -8   7 -11    2.20   11.60
   0   0 -12   15.30    6.40
  -1   0 -12  129.09   10.30
   0   1 -12  131.99   11.10
   1  -1 -12  124.19   10.90
  -1   1 -12  129.89   10.90
   0  -1 -12  115.19   10.10
   1   0 -12  112.69   10.10
  -1  -1 -12  886.31   34.20
   2  -1 -12  884.81   35.50
  -1   2 -12  949.60   35.50
  -1   3 -12  101.79   10.30
  -2  -1 -12   83.99    9.20
   2  -2 -12  149.29   11.90
   0   2 -12  151.98   12.20
  -2   0 -12  146.79   11.20
   1  -2 -12  887.81   33.80
  -2   1 -12  892.01   33.90
   2  -1  12  837.22   33.90
   0  -2 -12  150.58   11.40
   2   0 -12  128.19   10.90
  -2   2 -12  149.29   12.10
   0  -2 -12  157.58   10.60
   2  -2  12  121.69   11.40
  -2   3 -12  101.99   10.60
  -1  -2 -12   99.49    8.90
  -1  -2 -12   86.89    7.90
   2  -3  12   84.99    9.30
  -2  -2 -12    4.50    4.40
  -2   4 -12    2.60    7.10
  -2  -2 -12   -1.40    3.50
   2  -4  12    6.20    7.20
  -2   5 -12   50.19    9.10
   5  -3 -12   50.89    9.50
   2  -5  12   57.39    9.90
   4  -3 -12   37.10    8.40
  -1   4 -12   69.19    9.20
  -3  -1 -12   46.10    5.10
  -3  -1 -12   55.29    5.50
   3   1  12   49.90    7.60
   3  -3 -12  487.65   22.60
  -3   0 -12  485.25   20.90
   0   3 -12  559.74   22.70
   3   0  12  483.45   21.70
   2  -3 -12   99.49   10.80
   1   2 -12   96.39   10.10
  -3   1 -12   95.69   10.00
   2  -3 -12  108.99   11.10
   3  -1  12  100.99    9.50
   2   1 -12   91.89    9.90
   1  -3 -12  100.09   10.10
  -3   2 -12   93.39    9.30
   1  -3 -12   90.19    9.50
   3  -2  12  100.29    9.40
   0  -3 -12  493.75   21.10
   3   0 -12  521.25   23.00
   0  -3 -12  553.74   21.20
   3  -3  12  484.25   22.60
  -1  -3 -12   50.09    5.80
  -3   4 -12   61.69    9.00
  -1  -3 -12   52.59    6.00
   3  -4  12   55.79    8.40
  -3   5 -12   49.80    9.20
   3  -5  12   54.29    9.10
  -3   6 -12  332.77   19.60
   6  -3 -12  285.77   18.10
   3  -6  12  313.87   18.70
  -3   7 -12   27.50   10.20
   7  -4 -12   14.60    9.70
   3  -7  12   28.90   11.20
  -2   6 -12   23.40    9.60
   6  -4 -12   34.50    9.70
   5  -4 -12  334.17   19.00
  -1   5 -12  382.46   20.00
   4   1  12  344.97   17.70
   4  -4 -12   62.09    8.90
  -4   0 -12   76.39    7.30
   0   4 -12   81.49    9.70
   4   0  12   77.69    8.70
   3  -4 -12   61.69    8.50
  -4   1 -12   44.60    7.00
   1   3 -12   53.49    8.60
   4  -1  12   53.59    7.80
  -4   2 -12    5.70    6.40
   2   2 -12    5.50    6.90
   2  -4 -12    0.50    5.70
   2  -4 -12   10.30    6.70
   4  -2  12   11.20    5.80
   1  -4 -12   66.49    7.30
  -4   3 -12   47.30    8.50
   1  -4 -12   64.89    7.10
   3   1 -12   53.59    8.20
   4  -3  12   58.49    8.00
   0  -4 -12   73.69    6.70
  -4   4 -12   63.09    9.80
   0  -4 -12   76.19    8.20
   4  -4  12   53.39    8.60
  -4   5 -12  328.97   19.00
   4  -5  12  310.37   17.40
  -4   6 -12   25.90    9.60
   4  -6  12   49.40    9.90
  -4   7 -12   16.60   10.30
   7  -3 -12   23.20   10.30
   4  -7  12   10.00   10.10
  -4   8 -12   -2.30   10.90
  -3   8 -12  -16.90   11.30
  -2   7 -12   72.89   13.20
   7  -5 -12   78.19   12.10
   5   2  12   94.89   10.40
   6  -5 -12   22.60    9.50
  -1   6 -12   27.10   10.60
   5   1  12   13.10    7.20
   5  -5 -12   52.99    9.50
   0   5 -12   64.29   10.30
   5   0  12   67.49    8.30
  -5   1 -12  338.97   15.10
   1   4 -12  376.56   19.60
   4  -5 -12  318.37   17.60
   5  -1  12  333.57   16.90
   3  -5 -12   48.20    7.80
   2   3 -12   53.39    9.40
  -5   2 -12   49.90    7.50
   5  -2  12   51.19    7.20
   3   2 -12   50.09    8.50
   2  -5 -12   63.99    8.40
  -5   3 -12   37.70    8.20
   2  -5 -12   45.10    7.10
   5  -3  12   48.70    7.80
   4   1 -12  355.26   18.80
  -5   4 -12  344.07   18.20
   1  -5 -12  307.37   14.80
   1  -5 -12  336.57   15.50
   5  -4  12  327.57   17.60
  -5   5 -12   63.69   10.50
   0  -5 -12   57.59    5.70
   0  -5 -12   57.09    4.70
   5  -5  12   64.49    9.40
  -5   6 -12   24.20    9.90
   5  -6  12   31.70    9.20
   7  -2 -12   69.79   11.70
  -5   7 -12   76.99   12.90
   5  -7  12   75.99   12.20
  -5   8 -12    3.60   11.40
  -2   8 -12    8.30   13.00
   6   2  12    1.10    9.30
  -1   7 -12    6.20   11.40
   6   1  12    0.30    8.30
   0   6 -12    4.40   10.30
   6  -6 -12    0.50    8.60
   6   0  12    9.60    7.30
   5  -6 -12   25.30    8.90
   1   5 -12   34.50   10.30
   6  -1  12   21.10    6.80
   2   4 -12   67.09   10.20
   4  -6 -12   37.60    8.40
  -6   2 -12   31.90    6.40
   6  -2  12   38.20    7.40
   3   3 -12  315.67   19.00
  -6   3 -12  307.97   17.10
   3  -6 -12  307.37   16.70
   6  -3  12  314.77   16.60
   4   2 -12   48.20    9.40
  -6   4 -12   44.50    9.00
   2  -6 -12   45.50    7.70
   2  -6 -12   42.30    6.90
   6  -4  12   38.50    8.10
   1  -6 -12   35.90    5.30
  -6   5 -12    5.20    8.40
   1  -6 -12   25.70    4.80
   6  -5  12   26.70    8.10
  -6   6 -12  -10.10    9.90
   6  -6  12   18.80    8.70
  -6   7 -12   -3.20   10.70
  -6   8 -12    4.60   12.70
   0   7 -12    6.40   13.50
   7   0  12   20.10    9.00
   1   6 -12   22.50   12.30
   6  -7 -12    4.20    9.60
   7  -1  12   14.10    7.70
   5  -7 -12   93.29   11.80
  -7   2 -12   60.19    5.80
   2   5 -12   88.69   13.00
   7  -2  12   91.89    9.50
   4  -7 -12   20.50    9.20
   3   4 -12   34.80   11.10
  -7   3 -12   17.80    7.50
   7  -3  12   30.40    7.90
   3  -7 -12   34.70    8.40
   3  -7 -12   36.40    9.20
   4   3 -12   33.10   10.50
   7  -4  12   29.60    8.00
  -7   5 -12   84.99   12.20
   5   2 -12   87.39   12.70
   2  -7 -12   95.89   10.30
   2  -7 -12   95.29   10.10
   7  -5  12  102.19   10.90
  -7   6 -12    4.30   11.00
  -7   7 -12   16.50   12.50
   6  -8 -12   14.10   12.40
   2   6 -12   29.00   13.40
   8  -2  12   14.60    9.00
   3   5 -12   11.40   12.40
   5  -8 -12    5.00   11.30
   8  -3  12    5.50    7.90
  -8   4 -12    8.30    8.90
   4   4 -12    2.30   11.50
   4  -8 -12   -9.90   10.30
   8  -4  12    6.50    8.90
   3  -8 -12   -5.60    8.30
  -8   5 -12   14.00   10.90
   5   3 -12   28.90   11.90
   6   2 -12    4.90   11.20
  -8   6 -12    7.30   12.50
   0   0 -13    2.20    5.80
   1  -1 -13   27.20    7.70
  -1   0 -13   21.30    6.30
   0   1 -13   27.20    7.00
   0  -1 -13   29.30    6.70
  -1   1 -13   31.80    7.20
   1   0 -13   29.70    7.10
  -1   2 -13    5.20    6.40
   2  -1 -13   -4.40    6.20
  -1  -1 -13    1.80    5.60
  -1   3 -13    2.00    6.40
  -2  -1 -13    1.90    6.00
  -2   0 -13  279.77   15.20
   0   2 -13  295.47   15.80
   2  -2 -13  280.47   16.30
  -2   1 -13    0.90    6.70
   1  -2 -13    4.20    5.90
   1   1 -13   -3.70    6.20
  -2   2 -13  257.07   15.70
   0  -2 -13  288.87   14.20
   2   0 -13  249.88   15.90
   2  -2  13  259.27   15.60
  -2   3 -13    3.40    7.20
   3  -1 -13  -10.60    6.60
  -1  -2 -13    5.30    6.00
  -1  -2 -13   10.10    5.80
   2  -3  13    0.60    7.00
  -2  -2 -13    4.70    5.30
  -2  -2 -13   -3.80    4.30
  -2   4 -13   -1.30    7.70
  -2   5 -13   19.00    9.10
   5  -3 -13   17.70    9.30
  -3  -1 -13    3.90    5.10
  -3  -1 -13    0.30    4.80
   4  -3 -13    0.30    7.60
  -1   4 -13   15.10    7.60
  -3   0 -13    5.80    6.50
   3  -3 -13   -6.30    7.10
   0   3 -13    0.20    6.50
   3   0  13    9.30    6.50
  -3   1 -13   10.00    6.70
   2  -3 -13   -4.30    6.80
   1   2 -13    1.70    6.70
   3  -1  13    2.50    7.00
  -3   2 -13    0.10    7.20
   1  -3 -13    9.30    6.10
   1  -3 -13    1.20    6.60
   2   1 -13   11.50    7.00
   3  -2  13   -2.90    6.50
   0  -3 -13   12.70    5.70
   3   0 -13   17.00    7.60
  -3   3 -13    6.90    7.90
   0  -3 -13    4.30    6.10
   3  -3  13    7.10    7.70
  -1  -3 -13   10.50    5.30
  -3   4 -13   -2.00    7.70
  -1  -3 -13   15.10    4.60
   3  -4  13   10.90    7.80
  -3   5 -13   21.40    9.50
   3  -5  13    8.40    8.70
  -3   6 -13   -7.10    9.40
   6  -3 -13   -3.60    9.10
   3  -6  13   -1.60    9.90
  -3   7 -13    2.10   10.80
   3  -7  13   -5.70   11.30
   6  -4 -13   31.60   10.20
  -2   6 -13   67.29   11.60
   5  -4 -13   -2.10    8.10
  -1   5 -13    5.90    9.00
   4   1  13    4.30    7.50
  -4   0 -13  143.19   10.10
   0   4 -13  162.58   13.60
   4  -4 -13  151.18   14.60
   4   0  13  136.19   13.10
  -4   1 -13    6.40    7.00
   1   3 -13   11.90    7.90
   3  -4 -13    7.90    7.70
   4  -1  13    1.50    7.10
   2  -4 -13  -13.20    6.70
  -4   2 -13   -6.50    7.20
   2  -4 -13    7.00    7.10
   2   2 -13    5.00    7.30
   4  -2  13    1.40    7.20
   1  -4 -13   14.90    6.50
   3   1 -13   16.50    8.00
  -4   3 -13   -5.70    7.90
   4  -3  13    4.90    7.10
   0  -4 -13  141.59    9.90
  -4   4 -13  147.19   13.70
   0  -4 -13  126.49    9.30
   4  -4  13  118.69   12.60
  -4   5 -13  -10.60    8.30
   4  -5  13    8.70    8.60
  -4   6 -13   68.19   12.20
   4  -6  13   54.69   11.10
  -4   7 -13  -23.70   10.10
  -2   7 -13   -2.70   12.00
  -1   6 -13   -4.40   10.30
   6  -5 -13   -4.30    9.50
   5   1  13   -4.20    8.00
   5  -5 -13    0.70    9.30
   0   5 -13   -7.90    9.40
   5   0  13   -0.70    7.50
   1   4 -13   17.50    9.20
  -5   1 -13   -3.90    5.60
   4  -5 -13   -1.30    8.70
   5  -1  13    7.10    7.30
   3  -5 -13   34.90    8.60
   2   3 -13   28.90    8.60
  -5   2 -13   21.10    7.80
   5  -2  13   18.80    7.80
   3   2 -13   25.80    8.80
   2  -5 -13   17.30    7.10
   2  -5 -13   21.70    7.70
   5  -3  13   23.40    8.00
   1  -5 -13    8.40    5.80
  -5   4 -13    7.30    8.90
   1  -5 -13    4.80    6.20
   4   1 -13   16.50    8.60
   5  -4  13    4.10    8.00
  -5   5 -13   -5.30    9.60
   0  -5 -13    1.90    4.10
   0  -5 -13    1.00    3.30
   5  -5  13   -2.90    8.10
  -5   6 -13    1.50   10.80
   5  -6  13   18.10   10.40
  -5   7 -13   13.80   12.20
  -1   7 -13   -7.70   12.10
   6   1  13   14.90   10.30
   0   6 -13  -14.40   11.10
   6  -6 -13    8.70   10.70
   6   0  13   -5.50    8.40
   1   5 -13    5.20   10.20
   5  -6 -13   -5.30    9.40
   6  -1  13    8.40    8.20
  -6   2 -13   60.19    8.00
   4  -6 -13   47.60   10.30
   2   4 -13   83.49   12.00
   6  -2  13   80.09    9.70
   3  -6 -13    5.70    8.40
   3  -6 -13   11.90    9.10
  -6   3 -13  -17.50    8.00
   3   3 -13    7.10    9.60
   6  -3  13   15.40    8.00
   4   2 -13   66.19   11.00
   2  -6 -13   57.99    8.30
  -6   4 -13   57.89   10.90
   6  -4  13   60.99    9.50
   1  -6 -13   -3.00    5.00
   5   1 -13    2.40    9.90
  -6   5 -13   -6.40   10.00
   1  -6 -13    6.60    5.10
   6  -5  13   -2.10    8.50
  -6   6 -13  -20.00   10.80
  -6   7 -13   -9.20   12.30
   6  -7 -13    3.60   13.30
   1   6 -13   33.50   13.50
   7  -1  13   -0.60    9.00
   5  -7 -13  -22.30   11.10
  -7   2 -13    2.10    4.90
   2   5 -13   37.90   12.10
   7  -2  13  -13.70    8.10
  -7   3 -13   -2.90    7.80
   3   4 -13    3.20   10.50
   4  -7 -13   -1.60   10.60
   7  -3  13   -0.10    8.40
   3  -7 -13   11.20    9.50
   3  -7 -13    3.40    9.10
   4   3 -13   15.70   10.80
  -7   4 -13  -10.00    9.50
   7  -4  13  -10.50    8.10
  -7   5 -13    5.50   11.60
   2  -7 -13   10.40    6.80
   5   2 -13    8.10   10.70
   2  -7 -13   10.60    6.90
  -7   6 -13   10.10   13.00
   4  -8 -13    4.50   12.40
  -8   4 -13  -18.00    9.90
   4   4 -13   22.10   13.50
   0   0 -14  186.08   13.30
   0   1 -14    7.40    7.30
   1  -1 -14    7.30    7.30
  -1   0 -14   -1.10    6.00
   0  -1 -14    4.70    6.50
   1   0 -14    0.90    7.30
  -1   1 -14    5.50    6.70
   2  -1 -14   36.10    9.30
  -1   2 -14   52.59    8.80
  -1  -1 -14   45.40    7.40
   3  -2 -14   -3.80    8.20
  -1   3 -14   18.40    7.90
  -2  -1 -14    7.00    6.70
   2  -2 -14  180.58   15.20
  -2   0 -14  205.68   13.70
   0   2 -14  195.98   13.50
   1   1 -14   32.00    8.00
   1  -2 -14   52.89    8.80
   0  -2 -14  177.38   14.60
  -2   2 -14  196.78   14.70
   2   0 -14  185.48   14.00
   0  -2 -14  196.78   12.80
   3  -1 -14   -2.20    7.50
  -1  -2 -14   -1.10    6.80
  -2   3 -14   -0.50    7.60
  -1  -2 -14    3.80    6.00
  -2   4 -14   78.39   10.80
  -2  -2 -14   54.09    7.00
  -2  -2 -14   86.19    7.80
   5  -3 -14   10.20    9.70
  -2   5 -14   -3.30    9.50
  -1   4 -14    1.10    8.60
  -3  -1 -14    0.40    5.70
  -3  -1 -14    2.20    6.00
   4  -3 -14   -0.50    8.70
   0   3 -14   36.80    8.60
   3  -3 -14   11.20    8.60
   3  -3 -14    5.80    8.50
  -3   0 -14   22.90    7.60
   2  -3 -14   -6.80    7.70
   2  -3 -14   -7.00    7.60
   1   2 -14   -8.30    7.20
  -3   1 -14    1.80    7.50
   3  -1  14   -5.70    7.50
   2   1 -14    2.20    7.60
   1  -3 -14    2.90    6.90
  -3   2 -14   -5.60    8.10
   1  -3 -14    0.20    7.70
   3  -2  14   -0.50    7.50
   0  -3 -14   30.60    6.40
  -3   3 -14    5.50    8.50
   3   0 -14   24.40    8.60
   3  -3  14   24.50    9.00
  -1  -3 -14   -3.70    5.20
  -1  -3 -14   -3.30    5.40
  -3   4 -14   -4.00    8.60
   3  -4  14    2.30    8.80
  -3   5 -14    0.90   10.00
   3  -5  14    3.10    9.80
  -3   6 -14   11.70   10.80
   3  -6  14   20.50   11.50
  -3   7 -14    9.60   12.20
  -2   6 -14   35.90   11.30
  -1   5 -14   24.50    9.40
   5  -4 -14   24.00   10.10
   0   4 -14   90.29   10.90
  -4   0 -14   72.69    7.80
   4  -4 -14   81.49   11.30
   4   0  14  102.09   11.10
   1   3 -14    4.40    8.20
   3  -4 -14   -1.60    8.80
   3  -4 -14   -4.00    8.80
  -4   1 -14  -10.60    7.60
   4  -1  14    4.40    8.10
   2  -4 -14   80.89   10.00
  -4   2 -14   73.39   12.70
   2  -4 -14   82.29   11.10
   2   2 -14   89.59   11.20
   4  -2  14   83.19   10.40
   3   1 -14   -5.30    8.40
   1  -4 -14    3.60    7.50
   1  -4 -14    2.30    6.50
  -4   3 -14   -2.40    8.90
   4  -3  14   -7.90    8.00
  -4   4 -14   81.59   12.00
   4   0 -14  103.19   12.20
   0  -4 -14  100.89    9.60
   0  -4 -14   70.59    7.70
   4  -4  14   95.89   11.50
  -4   5 -14    5.00   10.70
  -1  -4 -14   13.90    3.80
   4  -5  14   15.10    9.60
  -4   6 -14   19.20   12.20
  -4   7 -14  -11.80   13.10
  -2   7 -14  -11.00   20.20
  -1   6 -14   -3.50   10.70
   5   1  14   16.60   10.20
   5  -5 -14  -13.40   10.10
   0   5 -14   -1.10   10.10
   5   0  14   16.20    9.30
  -5   1 -14    9.20    6.80
   1   4 -14   19.50   10.10
   4  -5 -14    9.10   10.40
   5  -1  14   18.20    9.00
   3  -5 -14    1.50   10.00
   2   3 -14   11.10    9.20
  -5   2 -14    5.50    8.50
   3  -5 -14    9.40    9.90
   5  -2  14    9.20    8.60
   2  -5 -14   -0.20    8.10
   2  -5 -14   13.80    8.70
   3   2 -14   20.20    9.70
  -5   3 -14   -1.60    9.60
   5  -3  14   -6.90    8.30
   1  -5 -14   12.30    6.60
   4   1 -14   17.50   10.00
  -5   4 -14   18.70   11.10
   1  -5 -14   15.50    7.20
   5  -4  14   25.20    9.70
  -5   5 -14   -3.60   10.90
   0  -5 -14    3.90    4.50
   0  -5 -14    1.20    4.20
   5  -5  14   -6.10    9.50
  -5   6 -14  -17.40   11.90
  -5   7 -14    9.00   14.20
   0   6 -14   32.50   12.80
   6   0  14   20.40   11.20
   1   5 -14   -9.70   10.20
   5  -6 -14   -9.70   11.40
   6  -1  14    8.20    9.40
  -6   2 -14   19.80    8.10
   2   4 -14   62.69   12.00
   4  -6 -14   35.00   11.40
   6  -2  14   51.69   10.50
   3   3 -14   14.70   10.80
   3  -6 -14    7.10   10.00
   3  -6 -14   17.10   10.40
   6  -3  14   15.90    9.50
   2  -6 -14   51.89    8.70
   2  -6 -14   38.70    9.50
   4   2 -14   44.80   11.90
  -6   4 -14   44.80   11.90
   6  -4  14   47.90   10.50
  -6   5 -14    2.50   12.70
   5   1 -14    1.60   10.30
   1  -6 -14    7.20    5.40
   1  -6 -14   -0.80    5.90
  -6   6 -14   22.60   13.50
   5  -7 -14    5.50   13.30
   2   5 -14    5.80   11.50
   7  -2  14    5.30    9.30
  -7   3 -14   -4.40    9.10
   4  -7 -14   38.00   12.70
   4  -7 -14   -9.60   12.60
   3   4 -14    8.80   12.00
   7  -3  14   -8.30    9.70
   4   3 -14   11.60   11.80
  -7   4 -14  -27.50   11.20
   3  -7 -14    8.80   12.20
   3  -7 -14    7.20   11.20
  -7   5 -14    2.90   13.30
   5   2 -14  -13.70   11.70
   0   0 -15    9.90    7.80
   1  -1 -15  287.37   17.70
  -1   0 -15  277.77   16.00
   0   1 -15  296.67   17.10
  -1   1 -15  301.57   16.90
   1   0 -15  263.47   17.50
   0  -1 -15  271.17   16.00
   2  -1 -15   17.50    8.70
  -1   2 -15   -1.80    7.60
  -1  -1 -15    3.70    6.80
  -2  -1 -15  154.88   12.80
  -1   3 -15  160.28   15.50
   3  -2 -15  157.58   16.90
  -2   0 -15   31.60    8.30
   2  -2 -15   38.50    9.90
   0   2 -15   45.20    9.10
   1  -2 -15    2.30    7.40
  -2   1 -15   -6.20    7.50
   1   1 -15    4.00    7.90
  -2   2 -15   35.50    8.70
   2   0 -15   52.09   10.10
   0  -2 -15   34.30    9.40
  -1  -2 -15  142.49   14.20
  -1  -2 -15  154.18   11.80
   3  -1 -15  157.98   15.60
  -2   3 -15  142.29   14.80
  -2  -2 -15   -8.40    6.40
  -2  -2 -15    5.20    6.30
  -2   4 -15   -2.10    9.40
   4  -2 -15  -10.00    9.70
  -2   5 -15  156.68   16.00
   5  -3 -15   97.19   12.90
   4  -3 -15  145.49   13.90
   4  -3 -15  170.38   16.70
  -3  -1 -15  124.39   11.80
  -1   4 -15  156.18   15.90
  -3  -1 -15  126.99   12.00
  -3   0 -15   -4.30    7.70
   3  -3 -15    3.40    8.80
   0   3 -15    7.10    8.60
   3  -3 -15    3.00    9.30
   2  -3 -15  142.89   13.70
   1   2 -15  144.79   14.10
   2  -3 -15  172.38   15.90
   2   1 -15  149.29   15.50
   1  -3 -15  139.99   15.50
  -3   2 -15  139.39   14.50
   1  -3 -15  132.69   13.40
   3  -2  15  135.99   14.70
   3   0 -15   -0.20    9.10
  -3   3 -15    5.30    8.70
   0  -3 -15   -3.30    8.10
   0  -3 -15   -4.50    6.20
   3  -3  15    8.10    9.20
  -1  -3 -15   98.19    9.50
  -3   4 -15  155.58   15.60
  -1  -3 -15  142.79   11.00
   4  -1 -15  147.29   17.10
   3  -4  15  143.39   16.80
  -3   5 -15  115.29   14.10
  -3   6 -15  -12.90   11.60
  -2   6 -15   31.50   11.80
  -1   5 -15   -7.50    9.40
   5  -4 -15   21.90   10.70
  -4   0 -15   15.90    7.30
   0   4 -15   50.99   10.10
   4  -4 -15   23.70   10.70
   3  -4 -15  185.18   17.50
  -4   1 -15  129.09   12.60
   1   3 -15  155.18   15.80
   3  -4 -15  138.49   14.40
   4  -1  15  161.78   16.10
   2   2 -15    1.30    8.70
   2  -4 -15   17.90    9.10
   2  -4 -15    9.40   10.70
  -4   2 -15    2.40    9.10
   4  -2  15   11.90    9.40
   1  -4 -15  173.48   13.50
   1  -4 -15  122.49   12.50
  -4   3 -15  149.59   16.70
   3   1 -15  181.38   17.00
   4  -3  15  153.78   16.80
   0  -4 -15   15.20    7.30
   4   0 -15   22.30   10.10
  -4   4 -15   35.70   11.80
   0  -4 -15   42.40    6.70
   4  -4  15   22.30   10.40
  -1  -4 -15    5.00    3.10
  -4   5 -15   16.90   12.20
  -1  -4 -15   -4.00    3.70
  -4   6 -15    8.00   12.80
  -1   6 -15   34.50   15.40
   0   5 -15   70.69   12.40
   5  -5 -15   26.80   12.60
   5   0  15   49.50   12.00
   1   4 -15   13.30    9.80
  -5   1 -15  -10.10    7.50
   4  -5 -15    1.10   11.60
   4  -5 -15   -7.90   12.00
   5  -1  15   12.80   10.60
   3  -5 -15  141.29   14.30
   3  -5 -15   81.99   13.40
   2   3 -15  159.88   17.10
  -5   2 -15  100.69   11.90
   5  -2  15  114.89   13.50
  -5   3 -15  135.89   14.20
   3   2 -15  160.38   17.50
   2  -5 -15   92.69   12.60
   2  -5 -15  134.39   14.70
   5  -3  15  109.19   13.20
   1  -5 -15    4.90    6.70
   1  -5 -15   -9.60   12.40
  -5   4 -15   -0.30   11.70
   4   1 -15    9.00   10.30
   5  -4  15   16.10   11.90
   5   0 -15   36.80   12.50
  -5   5 -15   44.20   13.80
   0  -5 -15   28.50    6.10
   0  -5 -15   36.10    5.80
  -5   6 -15   38.30   15.40
   1   5 -15   50.89   13.00
   5  -6 -15   34.10   15.90
   6  -1  15   69.79   12.80
   4  -6 -15   31.50   13.70
  -6   2 -15    7.30    9.00
   2   4 -15   12.80   10.90
   4  -6 -15   11.60   13.30
   6  -2  15   13.70   11.00
   3   3 -15   12.70   11.00
   3  -6 -15   -0.70   10.80
  -6   3 -15  -14.90   10.30
   3  -6 -15   -0.30   11.80
   6  -3  15   -2.20   12.20
   4   2 -15   28.00   12.50
  -6   4 -15   12.30   12.60
   2  -6 -15    3.00   10.40
   2  -6 -15   17.30    8.50
  -6   5 -15   43.10   14.30
   5   1 -15   52.09   14.20
   0   0 -16  538.45   24.80
   1  -1 -16   46.40    9.80
   0   1 -16   41.50    9.40
  -1   0 -16   49.90    9.20
   0  -1 -16   43.30    8.90
  -1   1 -16   43.70    8.80
   1   0 -16   55.69   11.00
   2  -1 -16   98.79   12.80
  -1   2 -16  105.29   11.80
  -1  -1 -16   87.99    9.50
  -2  -1 -16   28.70    8.00
   3  -2 -16   21.90   11.70
  -1   3 -16   16.50   10.20
   0   2 -16   40.90    9.50
   2  -2 -16   46.30   10.30
  -2   0 -16   30.50    8.40
  -2   1 -16  104.79   11.40
   1  -2 -16   88.79   10.90
   1   1 -16   92.39   11.60
  -2   2 -16   35.90    9.70
   0  -2 -16   36.00    8.10
   0  -2 -16   38.30   10.30
   2   0 -16   32.30   10.50
   3  -1 -16   33.90   12.10
  -1  -2 -16    9.50    9.30
  -1  -2 -16   34.80    7.70
  -2   3 -16   23.60    9.80
  -2  -2 -16  247.68   14.30
  -2   4 -16  254.87   18.40
  -2  -2 -16  203.38   15.30
   4  -2 -16  250.57   20.20
  -2   5 -16   20.40   12.40
   4  -3 -16   25.40   12.10
  -3  -1 -16   21.90    7.80
   4  -3 -16   13.20   10.30
  -3  -1 -16   20.50    8.10
  -1   4 -16   32.80   10.30
   0   3 -16   90.79   11.50
   3  -3 -16   66.79   12.10
   3  -3 -16   66.89   12.40
  -3   0 -16   81.09   10.20
  -3   1 -16   24.20    9.40
   1   2 -16   29.60   10.40
   2  -3 -16   25.30   10.50
   2  -3 -16   43.00   11.00
   1  -3 -16   30.80    9.40
   1  -3 -16   15.20   11.00
  -3   2 -16   25.10   10.10
   2   1 -16   27.80   10.50
   0  -3 -16   63.09    8.20
   0  -3 -16   46.10   11.10
  -3   3 -16   81.19   12.40
   3   0 -16   77.59   12.70
   4  -1 -16   31.10   12.00
  -3   4 -16   15.60   11.80
  -1  -3 -16   -4.90    7.70
  -1  -3 -16   14.90    6.70
  -3   5 -16   -7.00   11.30
   5  -2 -16    6.10   12.90
  -1   5 -16   32.40   12.20
  -4   0 -16    6.80    7.90
   4  -4 -16   24.60   12.30
   4  -4 -16   24.50   12.60
   0   4 -16   21.80   10.40
  -4   1 -16   19.20    9.70
   1   3 -16   27.80    9.80
   3  -4 -16   14.50   12.60
   3  -4 -16   15.90   11.50
   2  -4 -16  223.58   21.30
   2  -4 -16  267.47   19.00
  -4   2 -16  256.87   19.60
   2   2 -16  269.07   18.50
   4  -2  16  260.37   20.20
  -4   3 -16   18.60   11.10
   1  -4 -16   -0.40   10.60
   1  -4 -16   31.00    8.50
   3   1 -16   28.20   10.90
   4  -3  16   10.40   12.60
   4   0 -16   28.10   12.30
   0  -4 -16   24.00    6.90
  -4   4 -16   19.30   11.80
   5  -1 -16   53.29   13.60
  -4   5 -16   50.19   13.80
  -5   1 -16   12.60    8.90
   4  -5 -16   48.10   15.10
   4  -5 -16   20.80   14.20
   1   4 -16   38.60   11.70
   5  -1  16   36.70   12.30
  -5   2 -16   -9.10   10.50
   3  -5 -16   26.80   13.30
   2   3 -16    2.00   10.70
   3  -5 -16   25.30   12.00
   5  -2  16   20.60   12.20
   2  -5 -16   26.80    9.90
   3   2 -16    3.00   11.70
  -5   3 -16    6.00   12.10
   2  -5 -16    5.30   12.00
   1  -5 -16   30.50    7.80
   4   1 -16   35.60   13.70
  -5   4 -16   35.70   13.80
   1  -5 -16   16.70   10.00
  -5   5 -16   -5.90   14.40
   0   0 -17   15.70    8.80
   0   1 -17   20.20   10.40
  -1   0 -17   16.20    8.70
   1  -1 -17   -1.00    9.90
  -1   1 -17   20.50    9.60
   1   0 -17    5.10   10.80
   0  -1 -17   25.10    9.50
   2  -1 -17    9.80   10.70
  -1  -1 -17   -0.10    7.70
  -1   2 -17   10.20    9.90
  -1   3 -17    1.30   10.30
   3  -2 -17   19.70   12.40
  -2  -1 -17   44.30   10.40
   0   2 -17   -3.80    9.90
   2  -2 -17   10.00   11.40
  -2   0 -17    9.90    8.70
  -2   1 -17   12.20    9.70
   1   1 -17   19.40   10.90
   1  -2 -17   -3.30   10.30
   1  -2 -17    1.30   10.50
  -2   2 -17    8.90   10.00
   2   0 -17   -4.60   10.80
   0  -2 -17   -6.30   10.50
   0  -2 -17    5.70    8.00
   3  -1 -17    9.80   11.70
  -1  -2 -17   27.60   10.80
  -2   3 -17   21.50   10.60
   4  -2 -17    6.40   13.30
  -2   4 -17   11.40   11.60
  -2  -2 -17    4.70    7.60
  -2  -2 -17   -9.50    8.80
  -1   4 -17   14.80   10.90
  -3  -1 -17    1.10    8.00
  -3  -1 -17    0.40    8.30
   4  -3 -17   26.60   13.30
   3  -3 -17  -10.60   10.50
   0   3 -17    0.30   10.30
   3  -3 -17   13.20   12.70
   2  -3 -17   28.10   11.80
   1   2 -17   26.90   11.10
   2  -3 -17   29.80   12.20
  -3   1 -17   14.50    9.80
   1  -3 -17   10.40    9.40
   2   1 -17   22.80   11.10
  -3   2 -17   13.40   10.40
   1  -3 -17   34.00   12.00
   0  -3 -17   13.20    7.40
   3   0 -17   12.90   11.80
  -3   3 -17    5.00   10.80
   0  -3 -17   -6.60   11.20
  -3   4 -17   -3.30   11.10
   4  -1 -17   23.70   13.30
  -1  -3 -17   12.50    7.20
  -4   0 -17    6.30   10.80
   4  -4 -17    6.60   13.70
   3  -4 -17   12.30   13.80
  -4   1 -17    3.40   10.20
   3  -4 -17    0.20   12.70
   1   3 -17   25.30   11.20
   2  -4 -17   14.30   11.00
   2  -4 -17  -25.40   12.70
   2   2 -17  -14.00   10.30
  -4   2 -17   -2.60   11.00
   1  -4 -17    9.10   12.70
  -4   3 -17   11.10   12.20
   1  -4 -17   26.30    9.00
   3   1 -17   23.30   12.30
   0  -4 -17   12.80    7.20
  -4   4 -17   24.00   13.40
   0  -4 -17    0.60    9.80
   0   0 -18   15.10   10.10
   0   1 -18   17.70   10.50
   1  -1 -18   15.00   11.80
  -1   0 -18   18.00   10.10
   0  -1 -18   -3.20   10.20
  -1   1 -18   20.10   10.40
   1   0 -18   24.10   11.90
   2  -1 -18   48.90   13.70
  -1  -1 -18   45.20    9.40
  -1   2 -18   48.80   11.00
  -1   3 -18   19.00   11.50
   3  -2 -18    6.90   13.70
  -2  -1 -18   17.90    8.70
  -2  -1 -18   35.20   11.50
   0   2 -18   25.00   11.10
  -2   0 -18   18.00    9.40
   2  -2 -18    2.50   12.40
   2  -2 -18   11.40   13.80
  -2   1 -18   53.79   11.20
   1  -2 -18   27.80   11.50
   1  -2 -18   33.20   11.90
   1   1 -18   48.00   12.80
  -2   2 -18   20.70   11.10
   2   0 -18   -8.80   12.60
   0  -2 -18    5.30    8.80
   0  -2 -18   -4.90   11.60
  -1  -2 -18    8.60   11.80
   3  -1 -18   25.90   14.40
  -2   3 -18   -8.60   11.10
  -1  -2 -18   22.70    8.50
   3  -3 -18   41.50   14.80
  -3   0 -18   29.30   10.10
  -3   1 -18   28.90   10.30
   2  -3 -18   21.60   12.70
   2  -3 -18   -1.70   13.10
   1   2 -18    8.90   12.00
   1  -3 -18   15.30   13.00
   1  -3 -18   21.80   10.80
  -3   2 -18   27.80   11.90
   2   1 -18   15.60   12.80
   0  -3 -18   18.80   13.20
   0  -3 -18   28.50    8.80
  -3   3 -18   14.20   12.40
   0   0 -19   13.10   11.70
   0   0   0    0.00    0.00

_computing_structure_solution     'SHELXT 2014/5 (Sheldrick, 2014)'
;
_shelx_hkl_checksum   76185

