data_nazeerudin_0m_purefa
_audit_creation_date              2017-10-03
_audit_creation_method
;
Olex2 1.2
(compiled 2017.08.10 svn.r3458 for OlexSys, GUI svn.r5381)
;
_shelx_SHELXL_version_number      '2014/7'
_publ_contact_author_address      ?
_publ_contact_author_email        ?
_publ_contact_author_id_orcid     ?
_publ_contact_author_name         ''
_publ_contact_author_phone        ?
_publ_section_references
;
Dolomanov, O.V., Bourhis, L.J., Gildea, R.J, Howard, J.A.K. & Puschmann, H.
 (2009), J. Appl. Cryst. 42, 339-341.

Sheldrick, G.M. (2015). Acta Cryst. C71, 3-8.
;
_chemical_name_common             ?
_chemical_name_systematic         ?
_chemical_formula_moiety
'0.33(Br1.53 I7.47 Pb3), 4(C0.08 N0.33), 0.67(C N2)'
_chemical_formula_sum             'C H0.17 Br0.28 I2.55 N2 Pb'
_chemical_formula_weight          593.62
_chemical_melting_point           ?
loop_
  _atom_type_symbol
  _atom_type_description
  _atom_type_scat_dispersion_real
  _atom_type_scat_dispersion_imag
  _atom_type_scat_source
 'Pb' 'Pb' -3.3944 10.1111
 'International Tables Vol C Tables 4.2.6.8 and 6.1.1.4'
 'I' 'I' -0.4742 1.8119 'International Tables Vol C Tables 4.2.6.8 and 6.1.1.4'
 'Br' 'Br' -0.2901 2.4595
 'International Tables Vol C Tables 4.2.6.8 and 6.1.1.4'
 'C' 'C' 0.0033 0.0016 'International Tables Vol C Tables 4.2.6.8 and 6.1.1.4'
 'N' 'N' 0.0061 0.0033 'International Tables Vol C Tables 4.2.6.8 and 6.1.1.4'
 'H' 'H' 0.0000 0.0000 'International Tables Vol C Tables 4.2.6.8 and 6.1.1.4'

_shelx_space_group_comment
;
The symmetry employed for this shelxl refinement is uniquely defined
by the following loop, which should always be used as a source of
symmetry information in preference to the above space-group names.
They are only intended as comments.
;
_space_group_crystal_system       'hexagonal'
_space_group_IT_number            194
_space_group_name_H-M_alt         'P 63/m m c'
_space_group_name_Hall            '-P 6c 2c'
loop_
  _space_group_symop_operation_xyz
 'x, y, z'
 '-y, x-y, z'
 '-x+y, -x, z'
 '-x, -y, z+1/2'
 'y, -x+y, z+1/2'
 'x-y, x, z+1/2'
 'y, x, -z'
 'x-y, -y, -z'
 '-x, -x+y, -z'
 '-y, -x, -z+1/2'
 '-x+y, y, -z+1/2'
 'x, x-y, -z+1/2'
 '-x, -y, -z'
 'y, -x+y, -z'
 'x-y, x, -z'
 'x, y, -z-1/2'
 '-y, x-y, -z-1/2'
 '-x+y, -x, -z-1/2'
 '-y, -x, z'
 '-x+y, y, z'
 'x, x-y, z'
 'y, x, z-1/2'
 'x-y, -y, z-1/2'
 '-x, -x+y, z-1/2'

_cell_length_a                    8.8436(4)
_cell_length_b                    8.8436(4)
_cell_length_c                    22.4524(12)
_cell_angle_alpha                 90
_cell_angle_beta                  90
_cell_angle_gamma                 120
_cell_volume                      1520.73(16)
_cell_formula_units_Z             6
_cell_measurement_reflns_used     ?
_cell_measurement_temperature     297(2)
_cell_measurement_theta_max       ?
_cell_measurement_theta_min       ?
_shelx_estimated_absorpt_T_max    ?
_shelx_estimated_absorpt_T_min    ?
_exptl_absorpt_coefficient_mu     25.447
_exptl_absorpt_correction_T_max   ?
_exptl_absorpt_correction_T_min   ?
_exptl_absorpt_correction_type    ?
_exptl_absorpt_process_details    ?
_exptl_absorpt_special_details    ?
_exptl_crystal_colour             ?
_exptl_crystal_density_diffrn     3.889
_exptl_crystal_density_meas       ?
_exptl_crystal_density_method     ?
_exptl_crystal_description        ?
_exptl_crystal_F_000              1483
_exptl_crystal_size_max           ?
_exptl_crystal_size_mid           ?
_exptl_crystal_size_min           ?
_exptl_transmission_factor_max    ?
_exptl_transmission_factor_min    ?
_diffrn_reflns_av_R_equivalents   0.0369
_diffrn_reflns_av_unetI/netI      0.0232
_diffrn_reflns_Laue_measured_fraction_full 0.989
_diffrn_reflns_Laue_measured_fraction_max 0.989
_diffrn_reflns_limit_h_max        10
_diffrn_reflns_limit_h_min        -10
_diffrn_reflns_limit_k_max        8
_diffrn_reflns_limit_k_min        -10
_diffrn_reflns_limit_l_max        26
_diffrn_reflns_limit_l_min        -26
_diffrn_reflns_number             6164
_diffrn_reflns_point_group_measured_fraction_full 0.989
_diffrn_reflns_point_group_measured_fraction_max 0.989
_diffrn_reflns_theta_full         24.734
_diffrn_reflns_theta_max          24.734
_diffrn_reflns_theta_min          2.659
_diffrn_ambient_temperature       297.37
_diffrn_detector_area_resol_mean  ?
_diffrn_measured_fraction_theta_full 0.989
_diffrn_measured_fraction_theta_max 0.989
_diffrn_measurement_device_type   ?
_diffrn_measurement_method        ?
_diffrn_radiation_type            MoK\a
_diffrn_radiation_wavelength      0.71073
_diffrn_source                    ?
_reflns_Friedel_coverage          0.000
_reflns_Friedel_fraction_full     .
_reflns_Friedel_fraction_max      .
_reflns_number_gt                 498
_reflns_number_total              542
_reflns_special_details
;
 Reflections were merged by SHELXL according to the crystal
 class for the calculation of statistics and refinement.
 
 _reflns_Friedel_fraction is defined as the number of unique
 Friedel pairs measured divided by the number that would be
 possible theoretically, ignoring centric projections and
 systematic absences.
;
_reflns_threshold_expression      'I > 2\s(I)'
_computing_cell_refinement        ?
_computing_data_collection        ?
_computing_data_reduction         ?
_computing_molecular_graphics     'Olex2 (Dolomanov et al., 2009)'
_computing_publication_material   'Olex2 (Dolomanov et al., 2009)'
_computing_structure_refinement   'ShelXL (Sheldrick, 2015)'
_computing_structure_solution     ?
_refine_diff_density_max          0.985
_refine_diff_density_min          -0.697
_refine_diff_density_rms          0.141
_refine_ls_extinction_coef        0.00015(7)
_refine_ls_extinction_expression  'Fc^*^=kFc[1+0.001xFc^2^\l^3^/sin(2\q)]^-1/4^'
_refine_ls_extinction_method      'SHELXL-2014/7 (Sheldrick 2014'
_refine_ls_goodness_of_fit_ref    1.254
_refine_ls_hydrogen_treatment     undef
_refine_ls_matrix_type            full
_refine_ls_number_parameters      39
_refine_ls_number_reflns          542
_refine_ls_number_restraints      6
_refine_ls_R_factor_all           0.0320
_refine_ls_R_factor_gt            0.0287
_refine_ls_restrained_S_all       1.254
_refine_ls_shift/su_max           0.001
_refine_ls_shift/su_mean          0.000
_refine_ls_structure_factor_coef  Fsqd
_refine_ls_weighting_details
'w=1/[\s^2^(Fo^2^)+(0.0135P)^2^+9.6113P] where P=(Fo^2^+2Fc^2^)/3'
_refine_ls_weighting_scheme       calc
_refine_ls_wR_factor_gt           0.0640
_refine_ls_wR_factor_ref          0.0654
_refine_special_details           ?
_olex2_refinement_description
;
1. Shared sites
{I2, Br2}
{I1, Br1}
2. Restrained distances
 N1AA-C0AA
 1.45 with sigma of 0.02
 N6-C5
 1.45 with sigma of 0.02
 N1AA-N2AA
 2.485 with sigma of 0.04
 N6-N10
 2.485 with sigma of 0.04
 N1AA-C0AA \\sim N2AA-C0AA
 with sigma of 0.02
 N6-C5 \\sim N10-C5
 with sigma of 0.02
3. Uiso/Uaniso restraints and constraints
Uanis(I2) = Uanis(Br2)
Uanis(I1) = Uanis(Br1)
Uiso(N1AA) = Uiso(N2AA)
Uiso(N1AA) = Uiso(C0AA) = Uiso(N2AA)
Uiso(C5) = Uiso(N6) = Uiso(N10)
4. Others
 Sof(Br1)=0.25*(1-FVAR(2))
 Sof(I1)=0.25*FVAR(2)
 Sof(Br2)=0.5*(1-FVAR(3))
 Sof(I2)=0.5*FVAR(3)
 Fixed Sof: C0AA(0.08333) N2AA(0.16666) N1AA(0.16666) C5(0.1666) N6(0.1666)
 N10(0.1666)
;
_atom_sites_solution_hydrogens    .
_atom_sites_solution_primary      ?
_atom_sites_solution_secondary    ?
loop_
  _atom_site_label
  _atom_site_type_symbol
  _atom_site_fract_x
  _atom_site_fract_y
  _atom_site_fract_z
  _atom_site_U_iso_or_equiv
  _atom_site_adp_type
  _atom_site_occupancy
  _atom_site_site_symmetry_order
  _atom_site_calc_flag
  _atom_site_refinement_flags_posn
  _atom_site_refinement_flags_adp
  _atom_site_refinement_flags_occupancy
  _atom_site_disorder_assembly
  _atom_site_disorder_group
 Pb01 Pb 1.0000 0.0000 0.5000 0.0429(3) Uani 1 12 d S T P . .
 Pb02 Pb 0.6667 0.3333 0.66209(3) 0.0462(3) Uani 1 6 d S T P . .
 I1 I 0.99553(15) 0.49776(7) 0.7500 0.0671(5) Uani 0.966(14) 4 d S T P . .
 Br1 Br 0.99553(15) 0.49776(7) 0.7500 0.0671(5) Uani 0.034(14) 4 d S T P . .
 I2 I 0.83482(9) 0.16518(9) 0.58182(5) 0.1072(7) Uani 0.762(14) 2 d S T P . .
 Br2 Br 0.83482(9) 0.16518(9) 0.58182(5) 0.1072(7) Uani 0.238(14) 2 d S T P .
 .
 C0AA C 1.04(7) 0.11(3) 0.773(9) 0.23(3) Uiso 0.0833 1 d D . . A -1
 N2AA N 1.01(3) -0.066(18) 0.781(4) 0.23(3) Uiso 0.1667 1 d D . . A -1
 N1AA N 1.000(14) 0.187(12) 0.823(3) 0.23(3) Uiso 0.1667 1 d D . . A -1
 C5 C 1.300(8) 0.645(9) 0.583(2) 0.150(18) Uiso 0.1666 1 d D . . B -1
 N6 N 1.433(8) 0.674(9) 0.625(2) 0.150(18) Uiso 0.1666 1 d D . . B -1
 N10 N 1.346(9) 0.787(8) 0.543(2) 0.150(18) Uiso 0.1666 1 d D . . B -1

loop_
  _atom_site_aniso_label
  _atom_site_aniso_U_11
  _atom_site_aniso_U_22
  _atom_site_aniso_U_33
  _atom_site_aniso_U_23
  _atom_site_aniso_U_13
  _atom_site_aniso_U_12
 Pb01 0.0436(4) 0.0436(4) 0.0416(5) 0.000 0.000 0.0218(2)
 Pb02 0.0488(3) 0.0488(3) 0.0410(4) 0.000 0.000 0.02440(17)
 I1 0.0377(7) 0.0827(8) 0.0657(8) 0.000 0.000 0.0189(3)
 Br1 0.0377(7) 0.0827(8) 0.0657(8) 0.000 0.000 0.0189(3)
 I2 0.1284(10) 0.1284(10) 0.1047(10) -0.0251(3) 0.0251(3) 0.0942(10)
 Br2 0.1284(10) 0.1284(10) 0.1047(10) -0.0251(3) 0.0251(3) 0.0942(10)

_geom_special_details
;
 All esds (except the esd in the dihedral angle between two l.s. planes)
 are estimated using the full covariance matrix.  The cell esds are taken
 into account individually in the estimation of esds in distances, angles
 and torsion angles; correlations between esds in cell parameters are only
 used when they are defined by crystal symmetry.  An approximate (isotropic)
 treatment of cell esds is used for estimating esds involving l.s. planes.
;
loop_
  _geom_bond_atom_site_label_1
  _geom_bond_atom_site_label_2
  _geom_bond_distance
  _geom_bond_site_symmetry_2
  _geom_bond_publ_flag
 Pb01 I2 3.1266(10) 13_756 ?
 Pb01 I2 3.1267(10) . ?
 Pb01 I2 3.1267(10) 14_666 ?
 Pb01 I2 3.1267(10) 15_546 ?
 Pb01 I2 3.1267(10) 3_765 ?
 Pb01 I2 3.1267(10) 2_645 ?
 Pb01 Br2 3.1267(10) 3_765 ?
 Pb01 Br2 3.1267(10) 2_645 ?
 Pb01 Br2 3.1267(10) 15_546 ?
 Pb01 Br2 3.1267(10) 14_666 ?
 Pb01 Br2 3.1266(10) 13_756 ?
 Pb02 I1 3.2000(10) . ?
 Pb02 I1 3.2000(10) 3_665 ?
 Pb02 I1 3.2000(10) 2_655 ?
 Pb02 Br1 3.2000(10) 3_665 ?
 Pb02 Br1 3.2000(10) 2_655 ?
 Pb02 I2 3.1436(11) . ?
 Pb02 I2 3.1436(11) 3_665 ?
 Pb02 I2 3.1436(11) 2_655 ?
 Pb02 Br2 3.1436(11) 2_655 ?
 Pb02 Br2 3.1436(11) 3_665 ?
 I1 Pb02 3.2000(10) 16_557 ?
 C0AA N2AA 1.44(3) . ?
 C0AA N1AA 1.45(2) . ?
 C5 N6 1.43(2) . ?
 C5 N10 1.43(3) . ?

loop_
  _geom_angle_atom_site_label_1
  _geom_angle_atom_site_label_2
  _geom_angle_atom_site_label_3
  _geom_angle
  _geom_angle_site_symmetry_1
  _geom_angle_site_symmetry_3
  _geom_angle_publ_flag
 I2 Pb01 I2 88.98(4) 13_756 15_546 ?
 I2 Pb01 I2 91.02(4) 3_765 14_666 ?
 I2 Pb01 I2 88.98(4) 3_765 . ?
 I2 Pb01 I2 91.02(4) 13_756 3_765 ?
 I2 Pb01 I2 180.00(2) 13_756 . ?
 I2 Pb01 I2 180.0 15_546 3_765 ?
 I2 Pb01 I2 88.98(4) 15_546 14_666 ?
 I2 Pb01 I2 91.02(4) 13_756 2_645 ?
 I2 Pb01 I2 180.0 2_645 14_666 ?
 I2 Pb01 I2 91.02(4) 15_546 2_645 ?
 I2 Pb01 I2 91.02(4) 15_546 . ?
 I2 Pb01 I2 88.98(4) 3_765 2_645 ?
 I2 Pb01 I2 91.02(4) 14_666 . ?
 I2 Pb01 I2 88.98(4) 13_756 14_666 ?
 I2 Pb01 I2 88.98(4) 2_645 . ?
 I2 Pb01 Br2 91.02(4) 13_756 3_765 ?
 I2 Pb01 Br2 88.98(4) 3_765 2_645 ?
 I2 Pb01 Br2 88.98(4) 13_756 15_546 ?
 I2 Pb01 Br2 88.98(4) 13_756 14_666 ?
 I2 Pb01 Br2 180.0 14_666 2_645 ?
 I2 Pb01 Br2 88.98(4) 15_546 14_666 ?
 I2 Pb01 Br2 91.02(4) 15_546 2_645 ?
 I2 Pb01 Br2 91.02(4) 3_765 14_666 ?
 I2 Pb01 Br2 0.00(7) 2_645 2_645 ?
 I2 Pb01 Br2 180.0 2_645 14_666 ?
 I2 Pb01 Br2 0.00(3) 14_666 14_666 ?
 I2 Pb01 Br2 91.02(4) 13_756 2_645 ?
 Br2 Pb01 I2 180.0 3_765 15_546 ?
 Br2 Pb01 I2 89.0 2_645 . ?
 Br2 Pb01 I2 89.0 3_765 . ?
 Br2 Pb01 I2 91.0 15_546 2_645 ?
 Br2 Pb01 I2 91.0 13_756 3_765 ?
 Br2 Pb01 I2 89.0 3_765 2_645 ?
 Br2 Pb01 I2 0.0 3_765 3_765 ?
 Br2 Pb01 I2 91.0 13_756 2_645 ?
 Br2 Pb01 I2 180.0 13_756 . ?
 Br2 Pb01 I2 89.0 13_756 14_666 ?
 Br2 Pb01 I2 91.0 15_546 . ?
 Br2 Pb01 I2 0.0 15_546 15_546 ?
 Br2 Pb01 I2 180.0 15_546 3_765 ?
 Br2 Pb01 I2 89.0 15_546 14_666 ?
 Br2 Pb01 I2 91.0 14_666 . ?
 Br2 Pb01 I2 91.0 3_765 14_666 ?
 Br2 Pb01 I2 0.0 13_756 13_756 ?
 Br2 Pb01 I2 89.0 13_756 15_546 ?
 Br2 Pb01 Br2 91.02(4) 13_756 2_645 ?
 Br2 Pb01 Br2 180.0 14_666 2_645 ?
 Br2 Pb01 Br2 88.98(4) 15_546 14_666 ?
 Br2 Pb01 Br2 91.02(4) 3_765 14_666 ?
 Br2 Pb01 Br2 91.02(4) 13_756 3_765 ?
 Br2 Pb01 Br2 91.02(4) 15_546 2_645 ?
 Br2 Pb01 Br2 180.0 15_546 3_765 ?
 Br2 Pb01 Br2 88.98(4) 3_765 2_645 ?
 Br2 Pb01 Br2 88.98(4) 13_756 14_666 ?
 Br2 Pb01 Br2 88.98(4) 13_756 15_546 ?
 I1 Pb02 I1 85.94(2) . 2_655 ?
 I1 Pb02 I1 85.94(2) 3_665 2_655 ?
 I1 Pb02 I1 85.94(2) . 3_665 ?
 I1 Pb02 Br1 85.9 . 3_665 ?
 I1 Pb02 Br1 85.94(2) 3_665 2_655 ?
 I1 Pb02 Br1 85.9 . 2_655 ?
 Br1 Pb02 I1 0.0 3_665 3_665 ?
 Br1 Pb02 I1 0.0 2_655 2_655 ?
 Br1 Pb02 I1 85.9 3_665 2_655 ?
 Br1 Pb02 Br1 85.94(2) 3_665 2_655 ?
 I2 Pb02 I1 91.79(2) 2_655 2_655 ?
 I2 Pb02 I1 91.79(2) 3_665 2_655 ?
 I2 Pb02 I1 91.79(2) . 3_665 ?
 I2 Pb02 I1 91.79(2) 2_655 . ?
 I2 Pb02 I1 91.79(2) 3_665 3_665 ?
 I2 Pb02 I1 176.90(3) 3_665 . ?
 I2 Pb02 I1 176.90(3) 2_655 3_665 ?
 I2 Pb02 I1 176.89(3) . 2_655 ?
 I2 Pb02 I1 91.79(2) . . ?
 I2 Pb02 Br1 176.90(3) 2_655 3_665 ?
 I2 Pb02 Br1 91.79(2) . 3_665 ?
 I2 Pb02 Br1 91.79(2) 2_655 2_655 ?
 I2 Pb02 Br1 176.89(3) . 2_655 ?
 I2 Pb02 Br1 91.79(2) 3_665 3_665 ?
 I2 Pb02 Br1 91.79(2) 3_665 2_655 ?
 I2 Pb02 I2 90.40(4) . 2_655 ?
 I2 Pb02 I2 90.40(4) . 3_665 ?
 I2 Pb02 I2 90.40(4) 3_665 2_655 ?
 I2 Pb02 Br2 90.4 . 2_655 ?
 I2 Pb02 Br2 90.40(4) 3_665 2_655 ?
 I2 Pb02 Br2 90.4 . 3_665 ?
 Br2 Pb02 I1 176.90(3) 3_665 . ?
 Br2 Pb02 I1 176.90(3) 2_655 3_665 ?
 Br2 Pb02 I1 91.79(2) 2_655 . ?
 Br2 Pb02 I1 91.79(2) 3_665 2_655 ?
 Br2 Pb02 I1 91.79(2) 3_665 3_665 ?
 Br2 Pb02 I1 91.79(2) 2_655 2_655 ?
 Br2 Pb02 Br1 176.90(3) 2_655 3_665 ?
 Br2 Pb02 Br1 91.79(2) 3_665 3_665 ?
 Br2 Pb02 Br1 91.79(2) 2_655 2_655 ?
 Br2 Pb02 Br1 91.79(2) 3_665 2_655 ?
 Br2 Pb02 I2 90.4 3_665 2_655 ?
 Br2 Pb02 I2 0.0 2_655 2_655 ?
 Br2 Pb02 I2 0.0 3_665 3_665 ?
 Br2 Pb02 Br2 90.40(4) 3_665 2_655 ?
 Pb02 I1 Pb02 76.17(3) . 16_557 ?
 Pb01 I2 Pb02 179.00(5) . . ?
 N1AA C0AA N2AA 116(4) . . ?
 N10 C5 N6 114(4) . . ?

_shelx_res_file
;
    nazeerudin_0m_purefa.res created by SHELXL-2014/7

TITL nazeerudin_0m_a.res in P6(3)/mmc
REM Old TITL Nazeerudin_0m_a.res in P6(3)/mmc
REM SHELXT solution in P6(3)/mmc
REM R1 0.280, Rweak 0.004, Alpha 0.031, Orientation as input
REM Formula found by SHELXT: Pb I Br2
CELL 0.71073 8.8436 8.8436 22.4524 90 90 120
ZERR 6 0.0004 0.0004 0.0012 0 0 0
LATT 1
SYMM -Y,+X-Y,+Z
SYMM +Y-X,-X,+Z
SYMM -X,-Y,0.5+Z
SYMM +Y,-X+Y,0.5+Z
SYMM -Y+X,+X,0.5+Z
SYMM +Y,+X,-Z
SYMM -Y+X,-Y,-Z
SYMM -X,-X+Y,-Z
SYMM -Y,-X,0.5-Z
SYMM +Y-X,+Y,0.5-Z
SYMM +X,+X-Y,0.5-Z
SFAC Pb I Br C N H
UNIT 6 15.3 1.7 6 12 1
DFIX 1.45 N1AA C0AA
DFIX 1.45 N6 C5
SADI N1AA C0AA N2AA C0AA
SADI N6 C5 N10 C5
DANG 2.485 N1AA N2AA
DANG 2.485 N6 N10
EADP I2 Br2
EADP I1 Br1
EADP N1AA N2AA
EADP N1AA C0AA N2AA
EADP C5 N6 N10
EXYZ I2 Br2
EXYZ I1 Br1

L.S. 100
PLAN  20
TEMP 24.22
list 4
fmap 2
acta
OMIT 0 2 6
OMIT 0 1 12
OMIT 0 1 3
OMIT -2 5 0
OMIT -1 4 0
REM <olex2.extras>
REM <HklSrc "%.\\Nazeerudin_0m.hkl">
REM </olex2.extras>

WGHT    0.013500    9.611301
EXTI    0.000154
FVAR       0.12252   0.96644   0.76173
PB01  1    1.000000    0.000000    0.500000    10.08333    0.04364    0.04364 =
         0.04157    0.00000    0.00000    0.02182
PB02  1    0.666667    0.333333    0.662085    10.16667    0.04880    0.04880 =
         0.04101    0.00000    0.00000    0.02440
I1    2    0.995530    0.497765    0.750000    20.25000    0.03773    0.08274 =
         0.06570    0.00000    0.00000    0.01887
BR1   3    0.995530    0.497765    0.750000   -20.25000    0.03773    0.08274 =
         0.06570    0.00000    0.00000    0.01887
I2    2    0.834818    0.165182    0.581816    30.50000    0.12841    0.12841 =
         0.10473   -0.02508    0.02508    0.09416
BR2   3    0.834818    0.165182    0.581816   -30.50000    0.12841    0.12841 =
         0.10473   -0.02508    0.02508    0.09416
PART -1
C0AA  4    1.038694    0.109541    0.772962    10.08333    0.23274
N2AA  5    1.005226   -0.066313    0.780850    10.16666    0.23274
N1AA  5    1.000094    0.186508    0.823294    10.16666    0.23274

C5    4    1.300180    0.644670    0.582754    10.16660    0.14983
N6    5    1.433432    0.673833    0.625009    10.16660    0.14983
N10   5    1.346472    0.787439    0.543152    10.16660    0.14983
HKLF 4

REM  nazeerudin_0m_a.res in P6(3)/mmc
REM R1 =  0.0287 for     498 Fo > 4sig(Fo)  and  0.0320 for all     542 data
REM     39 parameters refined using      6 restraints

END

WGHT      0.0168      9.0551

REM Highest difference peak  0.985,  deepest hole -0.697,  1-sigma level  0.141
Q1    1   1.0000  0.0000  0.7500  10.08333  0.05    0.98
Q2    1   1.0000  0.0000  0.8090  10.16667  0.05    0.89
Q3    1   1.3333  0.6667  0.6360  10.16667  0.05    0.85
Q4    1   1.3333  0.6667  0.5381  10.16667  0.05    0.85
Q5    1   0.6667  0.3333  0.6167  10.16667  0.05    0.67
Q6    1   1.4956  0.9912  0.5797  10.50000  0.05    0.58
Q7    1   0.6667  0.3333  0.5696  10.16667  0.05    0.58
Q8    1   1.0000  0.0000  0.4622  10.16667  0.05    0.56
Q9    1   1.0606  0.1212  0.4989  10.50000  0.05    0.50
Q10   1   0.6667  0.3333  0.7500  10.08333  0.05    0.49
Q11   1   1.1704  0.3408  0.7719  10.50000  0.05    0.49
Q12   1   1.1610  0.3220  0.7500  10.25000  0.05    0.48
Q13   1   0.8716  0.0000  0.5000  10.50000  0.05    0.45
Q14   1   0.8609  0.1391  0.8569  10.50000  0.05    0.43
Q15   1   1.3333  0.6667  0.7317  10.16667  0.05    0.39
Q16   1   0.9033  0.5169  0.7500  10.50000  0.05    0.34
Q17   1   0.8774  0.2425  0.5566  11.00000  0.05    0.34
Q18   1   0.8265  0.1735  0.5241  10.50000  0.05    0.34
Q19   1   1.2627  0.5254  0.5848  10.50000  0.05    0.34
Q20   1   0.7263  0.4526  0.6577  10.50000  0.05    0.33
;
_shelx_res_checksum               81381
_shelx_hkl_file
;
   0  -1   0    8.80    0.50
  -1   0   0    6.30    0.50
   2  -1   0  775.32   40.20
  -2   1   0  804.82   40.20
  -2   0   0   13.90    1.00
   0  -2   0   15.50    0.90
   2   0   0   14.50    1.00
  -3   1   0   11.70    1.00
  -2  -1   0   11.50    1.00
  -3   2   0   10.90    0.90
   3  -1   0   10.50    0.90
  -1  -2   0   11.50    0.90
   1   2   0   10.40    0.90
   1  -3   0   13.90    0.80
   2   1   0   12.30    1.00
   3  -2   0   11.00    0.80
   3   0   0  791.82   40.20
  -3   0   0  783.52   40.20
   0  -3   0  790.52   40.20
   4  -2   0 9904.81  485.05
   2  -4   0 8774.02  482.55
  -2   4   0 9084.59  481.75
  -4   2   0 9740.83  484.95
  -2  -2   0 9999.00  486.85
   2   2   0 9250.17  485.95
   4  -1   0    6.20    0.80
  -4   3   0    6.80    0.70
   4  -3   0    5.60    0.70
  -1  -3   0    8.20    1.00
   4   0   0   31.00    2.00
  -4   0   0   27.90    2.00
   0  -4   0   30.70    1.90
   5  -2   0    1.60    0.80
  -5   2   0    4.10    0.90
   5  -3   0    2.40    0.70
  -2  -3   0    4.20    0.80
   3   2   0    3.20    0.90
   2  -5   0    3.90    0.60
  -5   3   0    2.70    0.70
  -3  -2   0    3.00    0.80
   1  -5   0  311.67   15.80
   4   1   0  317.67   15.90
   5  -1   0  314.47   15.90
  -1  -4   0  303.97   15.90
  -4  -1   0  301.57   15.90
   5  -4   0  306.27   15.70
  -5   1   0  292.97   15.90
  -5   0   0    5.10    1.10
   5   0   0    4.40    1.10
   0  -5   0    5.70    0.90
  -3  -3   0  116.39    6.50
   6  -3   0  120.59    6.40
  -6   3   0  120.69    6.40
   6  -2   0   26.10    2.00
  -6   2   0   22.50    2.00
   6  -4   0   26.70    1.80
  -2  -4   0   24.30    2.00
   2  -6   0   24.90    1.60
  -6   4   0   21.30    1.80
  -4  -2   0   22.60    2.10
   4   2   0   22.40    2.10
  -5  -1   0    5.30    1.20
   1  -6   0    4.60    1.00
   6  -1   0    0.60    1.20
   5   1   0    2.40    1.20
  -6   1   0    4.40    1.20
  -1  -5   0    3.70    1.10
  -6   0   0 1929.61  100.59
   6   0   0 2039.60  100.59
   0  -6   0 1949.30  100.49
   7  -4   0    0.40    1.00
  -3  -4   0    4.00    1.30
  -7   3   0    2.40    1.20
  -7   4   0    3.00    1.10
   7  -3   0   -1.00    1.20
  -4  -3   0    3.50    1.20
  -2  -5   0  381.96   20.20
   2  -7   0  389.86   20.00
   7  -5   0  400.06   20.00
   7  -2   0  406.06   20.20
  -5  -2   0  374.46   20.30
  -7   5   0  381.06   20.10
  -7   2   0  391.16   20.20
  -1  -6   0    1.90    1.20
   1  -7   0    0.50    1.00
  -7   1   0    2.90    1.30
  -6  -1   0    2.30    1.30
   6   1   0    2.20    1.30
   7  -1   0    0.30    1.40
  -7   0   0    2.50    1.50
   0  -7   0    1.80    1.20
  -4  -4   0 1013.20   54.39
   8  -4   0 1101.09   54.29
  -8   4   0 1070.29   54.29
  -5  -3   0    4.20    1.40
  -3  -5   0    4.30    1.50
  -8   3   0    4.00    1.50
   8  -3   0    0.70    1.40
  -8   5   0    1.10    1.20
  -8   2   0   20.70    2.20
   8  -2   0   18.10    2.10
  -6  -2   0   17.70    2.30
   2  -8   0   16.70    1.90
  -2  -6   0   16.70    1.90
  -8   1   0   55.39    4.00
  -7  -1   0   46.30    4.50
   1  -8   0   45.40    3.70
  -1  -7   0   55.39    3.60
  -8   0   0    9.00    2.40
   0  -8   0   11.50    1.80
  -5  -4   0    0.50    1.70
  -9   4   0    2.80    1.50
  -9   5   0    0.90    1.40
  -4  -5   0    2.20    1.40
  -9   3   0   91.29    5.70
  -9   6   0   90.49    5.40
  -6  -3   0   94.09    5.80
  -3  -6   0   89.89    5.60
  -9   2   0   -1.80    1.80
  -2  -7   0   -1.20    1.60
  -7  -2   0    1.00    1.80
   2  -9   0   -1.00    1.30
  -1  -8   0    0.10    1.70
  -8  -1   0    2.90    2.10
  -9   1   0    3.60    2.00
   1  -9   0    1.60    1.60
   0  -9   0  121.19    7.10
  -9   0   0  114.49    7.50
  -5  -5   0   25.10    2.90
 -10   5   0   30.50    3.30
  -6  -4   0    9.20    2.40
  -4  -6   0    6.40    1.90
 -10   6   0    5.30    1.90
 -10   4   0    8.40    2.10
 -10   3   0    0.00    2.10
  -7  -3   0    2.40    2.30
  -3  -7   0    3.20    1.90
   0  -1   1 1120.69   55.39
   0  -1  -1  956.60   57.19
   1   0   1  967.10   55.59
  -1   0   1 1114.89   56.09
  -1   0  -1 1069.29   55.79
   1   0  -1 1142.19   56.09
  -1   1   1 1070.69   55.59
   1  -1  -1 1090.19   55.39
  -1   1  -1 1027.60   54.49
   1  -2  -1    1.00    0.20
   1   1  -1   -0.10    0.30
  -2   1  -1    0.30    0.20
  -2   1   1   -0.10    0.20
  -1  -1   1   -0.20    0.20
   2  -1   1    0.00    0.20
   2  -1  -1    0.50    0.30
  -1  -1  -1    0.20    0.30
   2   0  -1    6.90    0.60
  -2   0  -1    5.60    0.60
   2   0   1    6.50    0.60
   2  -2  -1    8.30    0.50
   0   2  -1    7.00    0.60
   0  -2   1    7.50    0.60
  -2   0   1    6.50    0.70
  -2  -1  -1  688.23   34.60
  -3   2  -1  683.83   34.60
   2   1  -1  709.93   34.70
  -1  -2   1  651.13   34.60
   3  -2  -1  684.33   34.60
   3  -1   1  672.13   34.60
  -3   1   1  686.83   34.60
  -3   1  -1  655.93   34.60
   1  -3   1  660.13   34.50
  -3   2   1  715.73   34.60
  -2  -1   1  674.23   34.60
   3  -1  -1  680.43   34.60
   1   2  -1  675.63   34.60
   3  -2   1  668.43   34.60
   2   1   1  681.23   34.60
  -1  -2  -1  673.03   34.60
  -3   0   1    8.40    0.90
   0  -3  -1    8.20    0.80
   0   3  -1    9.20    0.80
   3  -3  -1    7.90    0.70
   3   0  -1    7.80    0.80
   0  -3   1    6.70    0.80
   3   0   1    7.80    0.90
  -3   0  -1    7.90    0.90
   2   2  -1   -2.10    0.70
   4  -2  -1    0.20    0.60
  -4   2   1    1.50    0.60
   4  -2   1    0.00    0.60
  -3  -1  -1  585.34   30.60
  -4   1   1  591.34   30.60
   1  -4  -1  612.14   30.50
  -4   3  -1  581.44   30.50
  -1  -3   1  580.24   30.60
   4  -1   1  604.74   30.60
   3   1  -1  597.64   30.60
   4  -3  -1  603.94   30.50
  -3  -1   1  584.44   30.60
   4  -1  -1  604.74   30.60
  -1  -3  -1  592.54   30.60
  -4   3   1  622.64   30.50
  -4   1  -1  594.74   30.60
   3   1   1  615.54   30.60
   4  -3   1  593.74   30.50
   1   3  -1  614.84   30.60
   1  -4   1  591.74   30.50
   4   0  -1   25.30    1.80
   0  -4   1   24.70    1.60
   4   0   1   25.90    1.80
  -4   0  -1   22.10    1.80
   0  -4  -1   23.60    1.70
  -4   0   1   25.30    1.80
   3   2  -1  362.56   18.40
  -5   3  -1  356.06   18.20
   5  -3  -1  344.37   18.20
  -2  -3   1  338.57   18.30
  -3  -2  -1  356.76   18.30
   2  -5  -1  367.96   18.20
  -5   2   1  351.76   18.30
   5  -2   1  352.46   18.30
   2   3  -1  364.46   18.30
   5  -3   1  353.46   18.20
   5  -2  -1  372.26   18.30
  -3  -2   1  347.07   18.30
  -5   3   1  362.36   18.30
  -5   2  -1  346.57   18.30
  -2  -3  -1  348.77   18.30
  -5   1   1    3.80    0.90
   5  -4  -1    3.20    0.70
   1  -5  -1    5.70    0.80
   5  -1   1    4.90    0.90
  -1  -4   1    4.90    0.90
  -4  -1  -1    5.80    1.10
   4   1  -1    4.70    0.90
   5  -1  -1    4.60    1.00
  -4  -1   1    5.20    0.90
  -1  -4  -1    4.50    0.80
  -5   1  -1    4.30    0.90
   4   1   1    5.20    0.90
   1  -5   1    5.00    0.70
  -5   4   1    3.70    0.80
  -5   0   1  182.18   10.10
   5   0   1  199.68   10.10
   0  -5  -1  193.98   10.00
   5   0  -1  190.38   10.10
   0  -5   1  192.88   10.00
  -5   0  -1  189.48   10.10
  -6   3   1   -1.00    0.80
   6  -3   1   -0.30    0.80
  -6   3  -1   -0.20    0.80
  -3  -3  -1   -1.10    0.80
   3   3  -1   -0.70    0.80
  -3  -3   1    0.20    0.80
   6  -3  -1   -0.70    0.80
  -4  -2  -1   24.80    2.30
  -6   2   1   31.20    2.20
   6  -4  -1   30.00    2.00
  -6   4  -1   23.30    2.00
  -2  -4   1   29.10    2.20
   2  -6  -1   30.40    1.90
   4   2  -1   26.60    2.30
   6  -2   1   30.70    2.20
  -2  -4  -1   26.60    2.20
   2  -6   1   31.90    1.80
  -6   4   1   29.20    2.00
  -4  -2   1   29.00    2.30
   6  -2  -1   31.30    2.20
  -6   2  -1   22.20    2.20
   6  -5  -1  215.78   11.20
  -6   1   1  216.38   11.50
   1  -6  -1  217.28   11.30
  -1  -5   1  207.98   11.40
   6  -1   1  224.08   11.50
  -5  -1  -1  220.48   11.50
   5   1  -1  225.18   11.60
  -5  -1   1  212.38   11.50
   1  -6   1  213.58   11.30
  -6   1  -1  217.38   11.50
  -1  -5  -1  217.08   11.40
   6  -1  -1  217.58   11.50
   0  -6   1    3.00    1.10
   6   0  -1    0.70    1.40
  -3  -4   1  110.19    6.50
   7  -4  -1  113.99    6.30
  -4  -3  -1  118.39    6.50
  -7   4  -1  116.99    6.30
  -7   3   1  117.49    6.50
   4   3  -1  119.79    6.50
  -4  -3   1  118.19    6.50
  -7   4   1  114.89    6.40
  -3  -4  -1  114.69    6.50
  -7   3  -1  114.59    6.40
   7  -3  -1  116.49    6.40
  -7   2   1    6.00    1.30
   7  -5  -1    2.30    1.10
  -5  -2  -1    7.70    1.40
   2  -7  -1    4.40    1.00
   5   2  -1    7.80    1.50
  -7   5  -1    4.70    1.00
  -2  -5   1    5.60    1.20
  -7   5   1    2.80    1.10
   2  -7   1    2.00    0.90
  -2  -5  -1    6.80    1.30
   7  -2  -1    3.00    1.20
  -7   2  -1    7.10    1.30
  -5  -2   1    5.10    1.30
  -6  -1  -1  134.89    7.30
   6   1  -1  128.49    7.30
  -1  -6   1  129.19    7.10
  -7   1   1  126.69    7.30
   1  -7  -1  122.49    7.00
   7  -6  -1  131.39    6.90
  -1  -6  -1  127.29    7.10
  -6  -1   1  126.69    7.30
   1  -7   1  129.39    7.00
   7  -1  -1  130.29    7.30
  -7   1  -1  132.29    7.20
   0  -7   1   65.49    4.10
  -7   0   1   66.59    4.40
   0  -7  -1   64.99    4.30
  -7   0  -1   65.69    4.40
   7   0  -1   68.69    4.40
  -8   4   1    1.90    1.40
   8  -4  -1    1.00    1.40
  -3  -5   1  101.19    6.00
  -8   3   1  101.79    6.10
  -5  -3  -1  108.49    6.20
  -8   5  -1  104.39    5.80
   8  -5  -1  102.09    5.90
   8  -3  -1  101.39    6.10
  -3  -5  -1  109.59    6.10
  -8   5   1  100.29    5.90
  -8   3  -1  105.89    6.00
  -5  -3   1  104.19    6.10
  -6  -2  -1   25.50    2.70
  -2  -6   1   24.60    2.50
   2  -8  -1   24.30    2.20
  -8   2   1   29.10    2.80
  -8   2  -1   22.40    2.80
  -2  -6  -1   22.30    2.60
  -8   6   1   24.40    2.40
   8  -2  -1   25.40    2.80
   2  -8   1   24.00    2.10
  -6  -2   1   22.10    2.70
  -1  -7   1    2.10    1.40
   1  -8  -1    0.70    1.30
  -8   1   1    4.20    1.70
  -7  -1  -1    2.10    2.10
  -1  -7  -1    0.70    1.40
  -8   1  -1    0.70    1.60
   8  -1  -1    1.10    1.60
  -7  -1   1    1.60    1.70
   0  -8  -1   14.90    2.00
   0  -8   1   14.20    1.90
  -8   0  -1   12.00    3.50
  -8   0   1   12.20    2.30
  -5  -4  -1   44.30    3.60
  -9   5  -1   39.40    3.30
  -9   4   1   43.70    3.50
  -4  -5   1   42.20    3.60
   9  -4  -1   44.50    3.60
  -9   5   1   46.50    3.40
  -5  -4   1   43.50    3.60
  -4  -5  -1   39.40    3.60
  -9   4  -1   46.50    3.50
  -6  -3  -1    3.10    1.90
  -9   6  -1    1.50    1.40
  -9   3   1    6.10    1.80
  -3  -6   1    3.00    1.60
   9  -3  -1    3.50    1.80
  -9   6   1    3.20    1.50
  -9   3  -1    3.10    1.80
  -6  -3   1    3.00    1.60
  -3  -6  -1    3.20    1.70
  -2  -7   1   26.50    3.00
  -7  -2  -1   21.90    2.70
  -9   2   1   23.20    2.60
   2  -9  -1   21.90    2.50
  -7  -2   1   21.30    2.60
   2  -9   1   21.50    2.40
  -2  -7  -1   22.80    2.50
  -9   2  -1   25.20    2.60
   1  -9  -1   28.30    3.00
  -1  -8   1   23.60    3.20
  -8  -1  -1   30.20    3.80
  -9   1   1   32.40    3.80
   1  -9   1   29.70    2.90
  -9   1  -1   27.10    3.50
  -8  -1   1   32.70    3.90
  -1  -8  -1   29.80    3.10
  -9   0  -1    6.70    2.40
   0  -9   1    2.90    1.90
  -9   0   1    6.90    2.40
   0  -9  -1    3.00    1.90
 -10   5   1   -0.60    1.80
 -10   5  -1    1.60    1.80
  -5  -5   1    1.00    2.00
  -5  -5  -1    1.20    1.70
  -4  -6   1   11.80    2.10
 -10   6  -1    9.10    1.90
  -6  -4  -1   13.30    2.20
 -10   4   1    6.80    2.10
 -10   6   1   11.90    2.10
 -10   4  -1   10.10    2.30
  -4  -6  -1   10.50    2.20
  -6  -4   1   11.20    2.20
  -3  -7   1   27.30    3.50
 -10   3   1   29.30    3.70
  -7  -3  -1   25.20    3.00
  -7  -3   1   23.60    2.90
 -10   3  -1   29.30    3.80
  -3  -7  -1   27.70    3.30
 -10   7   1   20.60    2.70
  -1   1  -2 1304.67   68.79
   1  -1   2 1272.07   68.49
  -1   0   2 1392.16   69.69
   0  -1   2 1354.56   68.99
   0  -1  -2 1337.67   69.49
  -1   0  -2 1338.57   69.39
   1   0   2 1237.38   69.19
   1  -1  -2 1356.86   69.89
  -2   1   2    4.60    0.50
   1   1  -2    5.00    0.50
   1  -2  -2    5.50    0.60
  -1  -1   2    6.40    0.60
  -2   1  -2    5.20    0.50
   2  -1  -2    7.00    0.60
  -2   2   2  564.64   28.10
   0  -2   2  544.05   28.10
   0   2  -2  546.25   28.10
   2  -2  -2  556.54   28.10
   2   0  -2  559.04   28.20
  -2   0   2  545.35   28.10
  -2   0  -2  545.25   28.10
  -3   2  -2  997.90   52.39
   3  -2  -2 1071.59   52.49
  -1  -2   2  980.30   52.49
  -2  -1  -2 1034.60   52.49
  -3   1   2 1040.90   52.49
   2   1  -2 1058.19   52.49
  -2  -1   2 1032.40   52.49
   2  -3  -2  970.10   52.49
  -1  -2  -2 1080.29   52.49
   3  -1  -2 1052.69   52.49
  -3   2   2 1054.29   52.49
  -3   1  -2 1008.30   52.49
   1  -3   2 1020.80   52.39
  -3   0  -2    7.10    0.90
   3   0  -2    7.20    0.90
   0   3  -2    9.10    0.80
   3  -3  -2    8.10    0.70
  -3   0   2    8.40    0.90
   0  -3   2    8.90    0.80
   4  -2  -2    2.10    0.70
  -2  -2   2    5.50    0.80
  -4   2   2    3.80    0.80
   2   2  -2    3.00    0.90
  -1  -3   2  843.72   43.90
  -4   1   2  846.42   43.90
  -3  -1  -2  873.11   44.00
   3   1  -2  859.91   44.00
   4  -3  -2  890.21   43.90
  -4   3   2  873.71   43.90
   1  -4   2  858.81   43.80
  -4   1  -2  853.61   43.90
  -1  -3  -2  863.91   43.90
   4  -1  -2  864.01   43.90
   1   3  -2  868.21   43.90
  -3  -1   2  835.52   43.90
   0  -4   2  103.59    5.60
   0  -4  -2  105.79    5.60
   4   0  -2  110.09    5.70
   0   4  -2  101.19    5.60
  -4   0   2  111.59    5.70
  -4   0  -2   97.69    5.70
   4  -4  -2  105.89    5.50
   3   2  -2  442.76   21.80
  -2  -3   2  405.56   21.70
  -3  -2  -2  414.56   21.80
   5  -3  -2  437.56   21.70
  -5   2   2  427.76   21.70
  -5   3  -2  417.76   21.60
   2  -5  -2  408.66   21.70
  -3  -2   2  416.06   21.70
  -5   2  -2  409.26   21.70
  -2  -3  -2  418.16   21.80
   2   3  -2  433.96   21.80
  -5   3   2  425.66   21.70
   5  -2  -2  434.56   21.70
   1  -5  -2    8.30    0.90
   4   1  -2    6.20    1.00
  -5   1   2    7.20    1.10
  -1  -4   2    8.10    1.00
   5  -4  -2    7.10    0.80
  -4  -1  -2    9.30    1.20
   1   4  -2    7.80    1.00
  -5   1  -2    6.50    1.00
  -4  -1   2    7.40    1.10
  -1  -4  -2    8.70    1.10
   5  -1  -2    9.00    1.10
   1  -5   2    7.90    0.80
  -5   4   2    7.50    0.90
   0  -5   2  291.97   15.30
  -5   0   2  291.47   15.40
  -5   0  -2  298.97   15.40
   5  -5  -2  286.87   15.20
   0  -5  -2  299.07   15.40
   5   0  -2  310.47   15.50
   6  -3  -2    8.00    1.10
  -3  -3  -2    8.30    1.30
  -6   3  -2    7.80    1.10
   3   3  -2   11.10    1.40
  -3  -3   2    7.10    1.10
  -6   3   2    7.50    1.10
  -2  -4   2   24.70    1.90
  -6   2   2   22.90    2.00
   6  -4  -2   23.10    1.70
   2  -6  -2   24.40    1.70
   4   2  -2   24.70    2.10
  -4  -2  -2   18.70    2.10
   6  -2  -2   24.40    2.00
  -6   4   2   22.80    1.80
   2  -6   2   24.30    1.50
   2   4  -2   15.00    1.90
  -4  -2   2   21.20    2.00
  -2  -4  -2   16.80    2.00
  -6   2  -2   19.40    1.80
   5   1  -2  418.06   20.80
  -1  -5   2  384.76   20.70
   1  -6  -2  411.26   20.60
  -6   1   2  395.76   20.80
  -5  -1  -2  398.96   20.80
   6  -5  -2  401.26   20.60
   6  -1  -2  405.26   20.80
  -6   5   2  394.26   20.70
  -1  -5  -2  407.96   20.70
   1  -6   2  394.86   20.60
  -5  -1   2  394.86   20.80
  -6   1  -2  403.46   20.80
   0  -6   2    6.40    1.30
  -6   0   2    6.50    1.40
  -3  -4   2  197.18   10.90
  -4  -3  -2  205.78   11.00
   4   3  -2  209.08   11.00
  -7   4  -2  206.68   10.80
   7  -4  -2  202.88   10.80
  -7   3   2  207.18   10.90
   3   4  -2  206.68   10.90
  -7   4   2  204.48   10.80
  -3  -4  -2  201.28   10.90
  -4  -3   2  204.98   10.90
  -7   3  -2  202.58   10.80
   7  -3  -2  210.18   10.90
  -7   2   2    4.30    1.30
   5   2  -2    2.40    1.40
   2  -7  -2    4.30    1.00
  -2  -5   2    4.30    1.30
  -7   5  -2    3.90    1.00
  -5  -2  -2    4.10    1.30
   7  -5  -2    3.10    1.00
   2  -7   2    3.60    0.90
  -7   2  -2    4.50    1.30
  -2  -5  -2    7.50    1.30
  -5  -2   2    4.30    1.30
   7  -2  -2    0.70    1.20
  -7   5   2    4.00    1.20
   6   1  -2  196.78   10.10
  -7   1   2  179.58   10.10
  -6  -1  -2  185.08   10.10
   1  -7  -2  189.98    9.90
  -1  -6   2  183.38    9.90
   7  -6  -2  175.68    9.90
  -6  -1   2  182.48   10.10
   1  -7   2  183.48    9.80
   7  -1  -2  188.78   10.10
  -7   1  -2  189.08   10.10
  -1  -6  -2  190.58   10.00
   7   0  -2   52.79    3.90
  -7   0  -2   52.39    3.90
  -7   0   2   58.49    3.90
   0  -7   2   57.69    3.60
  -8   4   2    0.20    1.50
  -4  -4  -2    8.70    1.40
  -4  -4   2    4.20    1.50
  -8   5  -2  189.68   10.20
   5   3  -2  199.88   10.50
  -5  -3  -2  197.88   10.50
  -3  -5   2  186.08   10.40
  -8   3   2  192.38   10.40
   8  -5  -2  193.68   10.30
  -5  -3   2  189.28   10.50
  -8   5   2  194.58   10.30
   8  -3  -2  198.68   10.50
  -3  -5  -2  191.38   10.50
  -8   3  -2  193.08   10.40
   6   2  -2   -0.50    1.50
   2  -8  -2    2.10    1.20
  -2  -6   2    3.20    1.30
  -6  -2  -2    2.20    1.90
   8  -6  -2    0.80    1.20
  -8   6  -2   -0.10    1.30
  -8   2   2    2.20    1.50
   2  -8   2    1.90    1.10
  -8   2  -2   -0.60    1.40
   8  -2  -2    0.40    1.60
  -6  -2   2    2.80    1.50
  -8   6   2    0.40    1.40
  -2  -6  -2    0.00    1.40
   1  -8  -2    4.90    1.40
  -8   1   2    6.80    1.70
   7   1  -2    4.70    1.90
  -1  -7   2    8.70    1.60
  -7  -1   2    6.90    1.90
  -1  -7  -2    5.40    1.50
  -8   1  -2    5.00    1.70
   8  -1  -2    2.20    1.70
   0  -8  -2    0.90    1.60
   8   0  -2   -1.20    1.80
  -8   0   2    3.00    1.90
   0  -8   2    3.10    1.50
  -8   0  -2    1.40    3.40
  -5  -4  -2   47.00    3.80
  -9   5  -2   44.60    3.40
  -9   4   2   44.30    3.70
  -4  -5   2   43.30    3.70
   9  -5  -2   51.29    3.70
   9  -4  -2   49.80    3.80
  -4  -5  -2   46.20    3.80
  -9   5   2   51.59    3.60
  -5  -4   2   48.50    3.90
  -9   4  -2   49.50    3.60
  -3  -6   2    2.20    1.60
   3  -9  -2    5.50    2.10
  -9   3   2    2.30    1.80
  -9   6  -2    3.50    1.40
  -6  -3  -2    4.90    1.80
   9  -6  -2    4.70    1.60
  -9   6   2    2.60    1.70
  -9   3  -2    4.30    1.70
  -6  -3   2    4.00    1.70
  -3  -6  -2    4.30    1.60
   9  -3  -2    0.80    1.80
  -2  -7   2   28.20    3.10
  -7  -2  -2   30.00    3.50
  -9   2   2   26.50    3.40
   2  -9  -2   25.10    2.70
  -2  -7  -2   29.20    3.20
  -9   2  -2   26.70    3.50
   9  -2  -2   28.10    3.40
  -7  -2   2   32.50    3.60
   2  -9   2   30.10    2.90
  -1  -8   2   66.79    4.50
  -8  -1  -2   64.99    4.90
   1  -9  -2   64.29    4.40
  -9   1   2   58.59    5.00
  -9   1  -2   59.39    6.60
   1  -9   2   61.49    4.30
  -1  -8  -2   59.19    4.50
  -8  -1   2   64.49    4.90
   9  -1  -2   69.29    4.80
 -10   5   2    6.70    2.00
 -10   5  -2    4.80    1.80
  -5  -5   2    6.30    2.00
  -5  -5  -2    2.70    2.20
  -4  -6   2    1.50    1.80
  -6  -4  -2    1.40    2.00
 -10   4   2    2.30    2.00
 -10   6  -2    2.30    1.70
  -6  -4   2    0.00    2.00
 -10   4  -2    1.60    2.10
  -4  -6  -2    1.20    2.00
 -10   6   2    1.70    1.90
  -7  -3  -2   57.79    5.00
  -3  -7   2   55.19    4.70
 -10   3   2   64.79    4.80
 -10   7   2   50.99    4.40
 -10   3  -2   66.59    4.90
  -3  -7  -2   62.49    4.60
  -7  -3   2   63.69    4.90
   0   0  -3    2.60    0.30
   0   0   3    1.20    0.30
   1  -1   3  171.68    9.00
  -1   0   3  171.98    9.00
  -1   1   3  179.08    9.10
   0   1  -3  174.18    9.00
   1  -1  -3  175.88    9.00
  -1   1  -3  169.88    9.00
   0  -1   3  182.48    9.00
   1  -2  -3    0.70    0.40
   1   1  -3    0.60    0.30
   2  -1  -3    0.40    0.30
  -1   2  -3    0.70    0.20
   1  -2   3    0.70    0.30
  -1  -1   3    0.80    0.30
  -2   1   3    0.50    0.30
  -2   2   3 2129.39  113.89
   0  -2   3 2246.98  112.39
   0  -2  -3 2025.50  113.19
   2  -2  -3 2251.97  113.19
  -2   0  -3 2217.18  113.29
   2   0   3 2160.68  113.09
  -2   0   3 2198.78  113.59
   2  -2   3 2011.00  110.59
  -2   2  -3 2118.29  111.39
  -3   2  -3  220.28   11.30
   2   1  -3  223.58   11.40
   3  -2  -3  227.48   11.40
  -3   1   3  223.78   11.40
  -1  -2   3  220.88   11.40
  -2   3   3  221.38   11.40
  -2  -1  -3  220.18   11.40
  -1   3  -3  217.38   11.30
  -3   2   3  222.48   11.40
  -2  -1   3  214.78   11.40
   2  -3  -3  206.48   11.40
   1  -3   3  224.18   11.30
   1   2  -3  229.88   11.40
  -3   1  -3  215.18   11.40
   3  -1  -3  227.58   11.40
   0   3  -3    0.50    0.40
  -3   0  -3    1.70    0.60
   3   0  -3    0.30    0.50
   0  -3   3    1.00    0.40
  -3   3   3   -0.30    0.50
  -3   0   3    0.80    0.50
   3  -3  -3    0.80    0.50
   4  -2  -3    1.00    0.70
   2  -4  -3    1.20    0.60
  -4   2  -3    2.20    0.50
  -2  -2  -3    0.40    0.60
  -4   2   3    0.60    0.60
  -1  -3   3  160.08    8.50
   3   1  -3  167.88    8.60
  -4   3  -3  141.09    8.60
  -4   1   3  164.68    8.60
  -1   4  -3  159.18    8.50
   4  -3  -3  175.88    8.50
  -3  -1   3  167.78    8.60
  -4   1  -3  162.28    8.60
   3  -4  -3  165.38    8.50
   1  -4   3  161.98    8.50
   4  -1  -3  168.58    8.60
   1   3  -3  164.38    8.60
  -1  -3  -3  173.58    8.60
  -4   3   3  159.98    8.50
   4   0  -3  566.64   28.20
   0  -4   3  530.75   28.10
   0   4  -3  545.35   28.10
  -4   0  -3  543.65   28.20
   0  -4  -3  568.84   28.20
   4  -4  -3  567.64   28.10
  -4   0   3  533.05   28.20
  -4   4   3  545.05   28.20
  -3  -2  -3   21.80    1.60
  -2  -3   3   19.20    1.50
  -5   3  -3   16.40    1.40
   2  -5  -3   17.00    1.40
  -5   2   3   16.10    1.60
   3   2  -3   15.40    1.60
   5  -3  -3   17.20    1.50
   5  -2  -3   17.40    1.60
  -2  -3  -3   18.60    1.60
   3  -5  -3   14.40    1.50
   2   3  -3   18.10    1.60
  -5   3   3   15.70    1.50
  -5   2  -3   17.80    1.50
  -3  -2   3   16.30    1.60
  -4  -1  -3   -0.20    0.90
  -5   1   3    1.00    0.80
   1  -5  -3    0.00    0.70
   4   1  -3    1.30    0.80
   5  -4  -3    1.30    0.70
  -4   5   3    0.60    0.60
  -1  -4   3    0.30    0.70
  -5   4   3    0.40    0.70
  -1  -4  -3   -0.40    0.80
  -4  -1   3    0.90    0.80
  -5   1  -3    0.30    0.80
   5  -1  -3    0.30    0.80
   1   4  -3    0.30    0.70
   1  -5   3    0.70    0.60
   0  -5  -3   21.50    1.80
   0  -5   3   19.10    1.70
   5   0  -3   21.30    2.00
  -5   0  -3   20.60    1.90
  -5   0   3   22.20    2.00
   0   5  -3   19.60    1.70
   5  -5  -3   23.20    1.60
  -6   3   3    1.30    0.90
  -6   3  -3    0.70    0.90
  -3  -3  -3    0.00    1.00
   3  -6  -3   -1.10    1.00
  -3  -3   3    1.20    0.90
   3   3  -3    1.50    0.90
   6  -3  -3    1.60    0.90
   2  -6  -3  171.18    9.00
  -6   4  -3  167.78    8.90
   2  -6  -3  173.78    8.90
  -6   2   3  172.88    9.10
  -2  -4   3  168.68    9.10
  -4  -2  -3  166.18    9.20
   6  -4  -3  175.28    9.00
   4   2  -3  176.08    9.20
  -2  -4  -3  162.08    9.10
  -4  -2   3  167.98    9.10
  -6   4   3  171.68    9.00
   6  -2  -3  176.78    9.10
  -6   2  -3  164.38    9.10
   2   4  -3  171.58    9.10
  -5  -1  -3   80.89    4.70
  -1  -5   3   76.29    4.50
   6  -5  -3   78.29    4.40
   5   1  -3   81.59    4.70
  -6   1   3   73.19    4.60
   1  -6  -3   78.39    4.40
  -5  -1   3   78.29    4.70
  -6   5   3   75.99    4.50
   1   5  -3   83.59    4.50
   1  -6   3   74.89    4.40
  -1  -5  -3   82.89    4.60
  -6   1  -3   83.89    4.60
   6  -1  -3   76.19    4.70
   0  -6  -3    2.90    1.10
  -6   0  -3    3.70    1.20
  -3  -4   3   22.10    2.20
   3  -7  -3   21.10    1.70
  -4  -3  -3   23.60    2.30
   3  -7  -3   21.10    2.20
   7  -4  -3   19.80    2.10
   4   3  -3   19.70    2.20
  -7   4  -3   23.60    2.00
  -7   3   3   19.40    2.20
  -3  -4  -3   20.80    2.20
  -4  -3   3   21.40    2.30
  -7   4   3   21.80    2.10
   3   4  -3   22.60    2.20
  -7   3  -3   23.00    2.20
   7  -3  -3   18.70    2.20
   2  -7  -3    1.90    1.00
  -7   5  -3    0.80    0.90
   2  -7  -3    0.30    0.90
   7  -5  -3   -1.30    0.90
  -5  -2  -3   -1.70    1.10
  -7   2   3   -1.00    1.20
  -2  -5   3   -1.30    1.00
   5   2  -3   -1.70    1.20
  -5  -2   3   -2.70    1.20
   2   5  -3   -0.30    1.30
  -7   5   3   -0.20    1.10
  -2  -5  -3   -0.50    1.00
   7  -2  -3   -1.20    1.20
  -7   2  -3   -1.40    1.10
   2  -7   3   -1.10    0.80
  -7   1   3   13.60    1.90
  -6  -1  -3   14.50    1.70
   1  -7  -3   15.60    1.90
  -1  -6   3   11.20    1.50
   7  -6  -3   11.50    1.30
   6   1  -3    9.40    1.70
   7  -1  -3   11.90    1.70
  -1  -6  -3   15.00    1.70
   1  -7   3   11.50    1.40
  -7   1  -3   13.50    1.70
  -6  -1   3   10.20    1.60
  -7   0  -3    3.90    1.70
  -7   0   3    3.70    1.60
   7   0  -3    2.90    1.50
   0  -7  -3    3.10    1.50
   0  -7   3    3.00    1.20
  -8   4   3   -1.30    1.30
  -4  -4   3   -3.40    1.40
  -8   4  -3    2.40    1.20
   4   4  -3    0.00    1.10
  -4  -4  -3    2.00    1.40
  -3  -5   3   24.80    2.60
   8  -5  -3   19.30    2.40
   3  -8  -3   27.70    2.60
  -8   3   3   22.50    2.70
  -8   5  -3   27.50    2.30
  -5  -3  -3   28.90    2.90
   5   3  -3   24.30    2.70
   3  -8  -3   31.60    2.10
  -8   5   3   18.10    2.50
  -8   3  -3   29.90    2.70
  -3  -5  -3   24.10    2.60
  -5  -3   3   26.00    2.80
   8  -3  -3   20.50    2.70
   2  -8  -3   26.80    2.70
  -8   2   3   31.70    3.10
   6   2  -3   27.10    3.10
   8  -6  -3   33.20    2.50
  -2  -6   3   34.80    2.80
  -6  -2  -3   32.60    3.30
   2  -8  -3   29.40    2.50
  -6  -2   3   33.30    3.10
  -8   6   3   26.70    2.80
  -2  -6  -3   28.60    2.90
   8  -2  -3   29.40    3.10
  -8   2  -3   31.70    3.10
   2  -8   3   31.90    2.40
  -7  -1  -3   -2.20    2.30
  -1  -7   3    2.30    1.30
   1  -8  -3   -1.70    1.20
  -8   1   3    1.30    1.70
   7   1  -3    0.10    1.80
  -7  -1   3    1.50    1.60
   8  -1  -3   -1.30    1.60
  -8   1  -3   -0.50    1.60
  -1  -7  -3   -1.00    1.40
   0  -8   3    7.90    1.60
  -8   0   3    7.30    2.10
   0  -8  -3    3.10    1.60
   8   0  -3    6.70    2.10
  -9   5  -3    1.10    1.40
  -9   4   3    3.20    1.70
  -5  -4  -3    2.70    1.70
  -4  -5   3    1.30    1.60
   9  -5  -3   -1.10    1.60
  -5  -4   3    2.60    1.60
  -4  -5  -3    1.80    1.70
   9  -4  -3   -1.70    1.70
  -9   5   3    2.00    1.50
  -9   4  -3    1.00    1.50
  -9   3   3   -1.20    1.70
  -6  -3  -3   -2.00    1.60
   6   3  -3   -2.50    1.60
  -9   6  -3    1.10    1.40
   9  -6  -3   -1.40    1.50
   3  -9  -3    0.90    1.20
  -3  -6   3    1.70    1.50
   3  -9  -3    2.70    1.70
  -9   6   3    0.60    1.50
  -9   3  -3   -1.60    1.60
  -6  -3   3    1.30    1.70
  -3  -6  -3    2.10    1.60
   9  -3  -3    0.50    1.80
  -7  -2  -3    1.30    1.90
  -2  -7   3    2.30    1.60
   2  -9  -3    1.50    1.60
   2  -9  -3    1.00    1.40
   9  -7  -3    2.00    1.60
   7   2  -3   -0.50    1.90
  -9   2   3    0.00    1.80
   9  -2  -3   -0.50    2.00
  -9   2  -3    1.90    1.90
  -2  -7  -3   -0.50    1.60
   2  -9   3    5.10    1.70
  -7  -2   3    1.50    2.00
  -9   1   3    7.30    2.20
   1  -9  -3    7.60    1.90
   8   1  -3   11.10    2.30
  -1  -8   3    8.30    2.00
  -8  -1  -3   11.20    2.40
   9  -1  -3   10.80    2.30
  -8  -1   3    5.30    2.20
   1  -9   3   10.20    1.90
  -1  -8  -3   10.20    2.10
  -9   1  -3    8.00    4.00
 -10   5  -3   -0.30    1.80
 -10   5   3    2.30    1.90
  -5  -5   3    3.30    1.80
  -5  -5  -3    0.20    1.80
  10  -5  -3    0.50    2.10
 -10   6  -3    4.90    1.70
  -4  -6   3    5.70    1.90
 -10   4   3    5.90    2.10
  10  -6  -3    1.40    2.00
  -6  -4  -3    2.10    2.30
  -6  -4   3    6.00    2.20
 -10   4  -3    8.80    2.10
  -4  -6  -3    5.20    2.00
  10  -4  -3    2.60    2.20
 -10   6   3    5.30    2.00
 -10   3   3   13.10    2.40
   3 -10  -3    6.30    1.70
  -7  -3  -3    9.40    2.20
  -3  -7   3    7.50    2.10
  10  -3  -3    6.20    2.30
  -3  -7  -3   13.50    2.40
 -10   3  -3   13.10    2.40
 -10   7   3    9.40    2.30
  -7  -3   3    7.00    2.30
   0   0   4    2.10    0.50
   0   0  -4    2.70    0.50
  -1   1   4  235.78   11.90
   1  -1   4  226.78   11.80
   1  -1  -4  230.08   11.90
   0   1  -4  233.98   11.80
   1   0  -4  231.98   11.80
   0  -1   4  236.18   11.80
  -1   1  -4  227.18   11.90
   0  -1  -4  221.58   11.90
   2  -1  -4   24.00    1.50
  -1   2  -4   24.40    1.40
   1  -2  -4   23.50    1.60
  -1   2   4   24.50    1.60
  -1  -1   4   25.10    1.50
   1  -2   4   26.30    1.50
   1   1  -4   25.70    1.50
  -2   1   4   25.10    1.50
  -2   2  -4 4241.58  226.78
  -2   0  -4 4643.84  228.18
   2   0   4 4235.98  227.48
  -2   0   4 4562.14  228.38
  -2   0   4 4449.35  228.08
   2  -2  -4 4580.54  228.78
   0  -2  -4 4309.97  228.08
  -2   2   4 4292.77  229.28
   0  -2   4 4486.75  227.08
   0   2   4 4379.76  227.98
   2  -2   4 4281.27  225.68
   0  -2   4 4356.26  226.78
  -2   3   4  230.88   12.60
   2   1  -4  246.88   12.60
   1  -3  -4  236.28   12.50
  -1   3  -4  247.28   12.50
   3  -2  -4  257.17   12.50
  -1  -2   4  245.68   12.50
  -3   1   4  240.58   12.60
   1  -3   4  245.18   12.50
  -2  -1   4  243.78   12.60
   2  -3  -4  218.78   12.60
  -3   2   4  246.58   12.60
   1   2  -4  251.67   12.50
   3  -1  -4  244.48   12.60
  -3   1  -4  247.88   12.50
  -3   0   4   20.60    1.40
   0   3  -4   19.80    1.30
  -3   0  -4   19.00    1.40
   0  -3   4   18.50    1.30
  -3   3   4   18.30    1.50
   3  -3  -4   19.20    1.30
   3   0  -4   18.80    1.40
  -4   2  -4   13.30    1.10
   4  -2  -4   11.40    1.20
  -2  -2  -4   12.90    1.30
  -2  -2   4   11.10    1.20
   2   2  -4   11.20    1.20
  -4   2   4   10.40    1.20
   2  -4  -4   14.00    1.30
   3   1  -4   71.99    3.90
  -4   1   4   68.89    3.90
  -4   3  -4   67.79    3.70
   4  -3  -4   70.29    3.80
  -3  -1  -4   72.49    3.90
  -1  -3   4   66.89    3.80
  -1   4  -4   68.99    3.70
  -3   4   4   63.49    3.80
  -3  -1   4   67.99    3.90
  -4   1  -4   65.99    3.80
   1   3  -4   70.39    3.80
   4  -1  -4   68.19    3.90
   1  -4   4   69.49    3.70
   3  -4  -4   68.09    3.80
  -4   3   4   69.99    3.80
   4  -4  -4 1723.83   85.39
   0   4  -4 1691.93   85.39
  -4   4   4 1688.03   85.49
   0  -4   4 1665.83   85.39
  -4   0  -4 1639.14   85.49
   4   0  -4 1711.53   85.49
  -4   0   4 1627.04   85.49
   3   2  -4   81.19    4.50
   5  -3  -4   84.19    4.40
  -5   3  -4   77.49    4.30
  -3  -2  -4   86.69    4.50
   2  -5  -4   75.39    4.40
  -5   2   4   80.29    4.50
  -2  -3   4   77.39    4.40
  -3  -2   4   78.69    4.50
   3  -5  -4   68.49    4.50
  -2  -3  -4   80.79    4.50
   2   3  -4   80.99    4.50
  -5   2  -4   79.59    4.40
   5  -2  -4   83.79    4.50
  -5   3   4   83.89    4.40
   5  -4  -4   13.00    1.30
  -5   1   4   15.70    1.60
  -4  -1  -4   11.90    1.40
  -1   5  -4   12.30    1.20
  -1  -4   4   13.40    1.40
   4   1  -4   13.20    1.60
  -5   1  -4   12.30    1.40
  -5   4   4   12.40    1.40
   1  -5   4   13.50    1.20
  -1  -4  -4   14.20    1.50
   1   4  -4   13.70    1.40
  -4  -1   4   14.50    1.60
   5  -1  -4   13.50    1.60
   4  -5  -4   13.30    1.30
   0  -5  -4  224.68   11.70
   0   5  -4  223.18   11.70
  -5   5   4  227.28   11.80
  -5   0   4  221.08   11.80
  -5   0  -4  219.18   11.80
   5  -5  -4  227.58   11.60
   5   0  -4  226.68   11.80
   0  -5   4  219.28   11.60
  -3  -3  -4   13.20    1.60
  -6   3  -4   10.00    1.30
   3  -6  -4   10.40    1.60
  -3  -3   4   15.60    1.70
   3   3  -4   14.50    1.70
   6  -3  -4   13.70    1.70
  -6   3   4   14.50    1.70
   4   2  -4  962.40   46.80
  -2  -4   4  883.51   46.70
  -4  -2  -4  917.31   46.80
   6  -4  -4  933.11   46.60
  -6   4  -4  904.71   46.60
   2  -6  -4  852.01   46.70
  -6   2   4  905.61   46.70
   2  -6   4  928.01   46.50
   2   4  -4  919.71   46.70
   6  -2  -4  944.41   46.70
  -6   2  -4  923.61   46.70
  -2  -4  -4  904.21   46.70
  -6   4   4  916.61   46.70
  -4  -2   4  885.51   46.70
   1  -6  -4   47.90    2.90
   5   1  -4   44.70    3.20
   6  -5  -4   47.50    2.80
  -5  -1  -4   47.40    3.10
  -1  -5   4   42.30    3.00
  -6   1   4   42.70    3.20
  -1  -5  -4   53.39    3.00
  -6   5   4   43.30    3.00
   1  -6   4   45.90    2.80
   6  -1  -4   42.50    3.20
  -6   1  -4   46.40    3.10
   1   5  -4   44.20    2.90
  -5  -1   4   40.20    3.10
   6   0  -4   13.70    1.80
  -6   0   4   11.70    1.60
   6  -6  -4   13.70    1.50
   0  -6  -4   15.50    1.80
  -6   0  -4   15.00    1.60
   0  -6   4   12.00    1.40
  -7   3   4   97.39    5.60
   4   3  -4   99.39    5.70
  -7   4  -4  100.09    5.50
   7  -4  -4  100.19    5.60
   3  -7  -4   94.89    5.70
  -3  -4   4   93.79    5.60
  -4  -3  -4  101.09    5.70
  -4  -3   4   96.99    5.70
   7  -3  -4  101.49    5.60
  -3  -4  -4  100.39    5.70
  -7   3  -4  101.79    5.60
   3   4  -4   95.09    5.70
  -7   4   4   97.89    5.60
   7  -5  -4    3.10    1.10
   2  -7  -4    3.80    1.00
  -5  -2  -4    2.30    1.40
   2  -7  -4    3.10    1.10
   5   2  -4    2.60    1.20
  -2  -5   4    4.40    1.30
  -7   2   4    1.80    1.30
  -7   5  -4    0.80    1.00
  -5  -2   4    2.60    1.20
  -7   2  -4   -0.50    1.30
   7  -2  -4    1.60    1.20
  -7   5   4    2.80    1.20
   2  -7   4    3.30    0.90
  -2  -5  -4    1.00    1.10
   1  -7  -4   20.10    2.10
   6   1  -4   21.70    2.20
  -7   1   4   20.80    2.50
  -6  -1  -4   20.00    2.50
   7  -6  -4   19.00    1.90
  -1  -6   4   16.50    2.10
  -1  -6  -4   18.80    2.40
   1  -7   4   17.80    2.00
  -7   6   4   20.70    2.10
   7  -1  -4   18.90    2.10
  -6  -1   4   18.20    2.00
  -7   1  -4   20.20    2.40
   0  -7   4   55.59    3.90
   7   0  -4   57.69    4.10
  -7   0   4   59.39    4.10
   0  -7  -4   58.19    3.80
  -7   0  -4   57.79    4.10
  -8   4   4   11.60    1.70
  -4  -4  -4   13.40    1.90
   8  -4  -4    9.00    1.70
   4   4  -4   12.40    1.80
  -4  -4   4    9.20    1.80
  -8   4  -4   13.20    1.60
   3  -8  -4   17.30    2.00
  -8   5  -4   14.60    1.80
  -8   3   4   11.10    1.80
   5   3  -4   10.20    1.90
   8  -5  -4    9.40    1.60
   3  -8  -4   12.00    1.40
  -3  -5   4    9.80    1.80
  -5  -3  -4   11.90    1.80
  -5  -3   4    9.00    1.70
  -8   5   4   11.40    1.70
  -3  -5  -4   13.40    1.80
   8  -3  -4   10.70    1.80
   3   5  -4   11.80    1.60
  -8   3  -4   15.70    1.80
   2  -8  -4  242.48   12.50
  -2  -6   4  238.38   12.60
   8  -6  -4  239.18   12.50
   6   2  -4  244.78   12.80
  -6  -2  -4  232.58   12.80
  -8   2   4  231.28   12.70
   2  -8  -4  218.68   12.60
  -2  -6  -4  240.18   12.70
   8  -2  -4  236.18   12.80
  -8   6   4  240.78   12.70
   2  -8   4  240.58   12.40
  -6  -2   4  236.78   12.80
  -8   2  -4  241.08   12.70
   8  -7  -4    6.30    1.70
  -7  -1  -4    2.80    2.00
   1  -8  -4    1.70    1.50
   7   1  -4    4.60    1.80
  -1  -7   4    6.40    1.50
  -8   1   4    8.60    1.90
  -7  -1   4    4.00    1.70
  -8   1  -4    1.80    1.70
   8  -1  -4    5.60    1.90
  -1  -7  -4    5.10    1.60
  -8   0  -4  160.38   10.80
   0  -8  -4  161.08    9.20
   0  -8   4  167.48    9.20
  -8   0   4  171.18    9.60
   8   0  -4  174.78    9.60
  -4  -5   4   28.60    3.10
  -9   5  -4   29.90    2.70
   9  -5  -4   25.20    3.00
  -5  -4  -4   30.40    3.30
  -9   4   4   29.90    3.00
   5   4  -4   29.50    3.10
  -9   4  -4   29.30    3.00
  -5  -4   4   27.50    3.20
  -9   5   4   25.30    3.00
   9  -4  -4   25.90    3.10
  -4  -5  -4   26.50    3.10
   3  -9  -4    3.80    1.90
   6   3  -4    2.30    1.60
   9  -6  -4    3.60    1.60
  -9   3   4    0.70    1.70
   3  -9  -4    4.40    2.40
  -9   6  -4    1.20    1.40
  -3  -6   4    2.90    1.50
  -6  -3  -4    2.10    1.80
  -3  -6  -4    1.90    1.60
  -9   6   4    3.00    1.70
  -9   3  -4    1.80    1.80
   9  -3  -4    1.80    1.80
  -6  -3   4    3.30    1.80
   9  -7  -4   63.69    4.00
   7   2  -4   60.79    4.70
  -9   2   4   57.89    4.50
  -2  -7   4   61.49    4.30
  -7  -2  -4   66.29    4.70
   2  -9  -4   61.79    4.10
   2  -9  -4   51.59    4.30
  -9   7   4   53.79    4.60
  -9   2  -4   59.09    4.60
   2  -9   4   53.79    4.30
  -2  -7  -4   61.89    4.40
   9  -2  -4   61.39    4.70
  -7  -2   4   61.59    4.60
  -8  -1  -4   13.00    2.50
   8   1  -4   14.90    2.80
   1  -9  -4   17.90    2.20
  -1  -8   4   16.40    2.30
  -9   1   4   15.10    2.60
  -8  -1   4   13.80    2.60
  -9   1  -4   16.40    3.50
   9  -1  -4   14.30    2.70
  -1  -8  -4   13.10    2.20
   1  -9   4   16.40    2.10
 -10   5  -4    3.10    1.90
  -5  -5   4    2.90    1.70
 -10   5   4    5.50    2.20
  10  -5  -4    1.90    2.10
  -5  -5  -4    2.80    2.00
 -10   4   4   87.89    5.90
  -4  -6   4   80.89    5.80
 -10   6  -4   87.79    5.50
  10  -6  -4   88.09    5.80
  -6  -4  -4   91.49    6.10
  -4  -6  -4   84.19    5.90
  10  -4  -4   92.29    6.10
  -6  -4   4   92.89    6.10
 -10   4  -4   98.79    5.90
 -10   6   4   89.59    5.90
   3 -10  -4    6.90    2.60
  -3  -7   4    9.90    2.20
  -7  -3  -4    5.60    2.30
 -10   3   4   12.00    2.50
  10  -7  -4    4.60    2.00
   3 -10  -4    7.00    1.80
  10  -3  -4    6.70    2.50
 -10   3  -4    9.90    2.40
  -7  -3   4    6.90    2.40
 -10   7   4    8.60    2.50
  -3  -7  -4    8.90    2.10
   0   0  -5    0.00    0.40
   0   0   5   -0.20    0.40
  -1   1   5  367.36   18.20
  -1   0  -5  351.16   18.10
   0   1   5  373.46   18.20
   1  -1  -5  347.57   18.20
   0   1  -5  370.16   18.10
   0  -1  -5  335.37   18.10
  -1   1  -5  341.37   18.20
   0  -1   5  364.16   18.10
  -1   0   5  354.56   18.10
   1  -1   5  334.37   18.10
   1   0  -5  347.47   18.10
   1  -2   5   -0.40    0.50
  -1   2  -5    0.50    0.40
  -1   2   5    0.10    0.60
   1   1  -5    0.80    0.40
  -1  -1   5    0.50    0.40
   2  -1  -5    0.20    0.50
  -2   1   5    0.60    0.50
   2  -2  -5 2102.29  106.39
  -2   2   5 2078.19  106.39
  -3   1   5  357.36   18.40
   3  -2  -5  372.86   18.40
  -1   3  -5  371.56   18.30
   1  -3  -5  339.07   18.40
   2   1  -5  369.26   18.40
  -1  -2   5  362.86   18.30
   2  -3   5  329.07   18.30
  -2   3   5  341.97   18.40
   1   2  -5  362.86   18.30
  -2  -1   5  362.96   18.40
   1  -3   5  368.96   18.30
  -3   2   5  367.06   18.40
   3  -1  -5  363.66   18.40
   2  -3  -5  328.27   18.40
   3  -3  -5    4.00    0.80
  -3   3  -5    4.90    0.70
   0  -3   5    4.40    0.70
   3   0  -5    5.00    0.90
  -3   0   5    5.80    0.90
  -3   3   5    5.30    1.00
   0   3  -5    5.10    0.70
   2  -4  -5   -0.30    0.70
  -2  -2   5    0.00    0.70
   4  -2  -5   -0.30    0.70
   2   2  -5   -0.70    0.60
  -4   2  -5    0.30    0.50
  -4   2   5   -0.40    0.70
   1  -4  -5  148.49    7.80
  -1  -3   5  148.19    7.70
  -4   1   5  150.88    7.80
  -3  -1  -5  144.29    7.80
  -3   4   5  133.79    7.80
  -1   4  -5  147.79    7.60
  -4   3  -5  146.09    7.60
   4  -3  -5  152.18    7.70
   3   1  -5  152.48    7.80
   1  -4   5  147.79    7.70
  -3  -1   5  146.89    7.80
   4  -1  -5  152.58    7.80
  -4   1  -5  146.09    7.80
  -4   3   5  144.19    7.80
   3  -4  -5  138.69    7.80
   1   3  -5  150.08    7.70
  -4   4   5  871.21   44.10
  -4   0  -5  849.52   44.00
   0   4  -5  855.31   43.90
   0  -4   5  851.41   43.90
  -4   0   5  849.52   44.00
   4   0  -5  876.11   44.00
   4  -4  -5  870.01   43.90
  -5   3  -5  128.59    7.00
  -2   5  -5  132.99    6.90
  -2  -3   5  130.09    7.10
  -5   2   5  134.69    7.10
  -3  -2  -5  143.29    7.20
   2  -5  -5  125.59    7.10
   5  -3  -5  138.59    7.10
   3   2  -5  136.99    7.10
   5  -2  -5  134.59    7.10
  -3  -2   5  128.59    7.10
   3  -5  -5  114.69    7.10
  -5   3   5  132.89    7.10
   2   3  -5  135.09    7.10
  -5   2  -5  130.69    7.00
  -2  -3  -5  137.69    7.20
  -1   5  -5    1.80    0.70
  -5   1   5    2.40    1.00
  -4   5   5    2.00    0.90
   4   1  -5    4.30    1.00
  -4  -1  -5    0.00    1.00
  -1  -4   5    2.90    0.90
   5  -4  -5    2.80    0.90
   1  -5   5    2.50    0.70
  -4  -1   5    2.30    1.00
  -5   4   5    1.80    1.00
   4  -5  -5    1.90    0.80
   1   4  -5    1.80    0.90
  -5   1  -5    0.60    0.90
   5  -1  -5    2.10    1.00
  -1  -4  -5    2.40    0.90
   0  -5  -5  261.97   13.40
   5  -5  -5  263.27   13.30
   0   5  -5  254.97   13.30
  -5   5   5  249.97   13.50
   0  -5   5  250.37   13.30
   5   0  -5  267.37   13.50
  -5   0   5  249.78   13.40
  -5   0  -5  248.28   13.40
  -6   3  -5    0.60    1.00
   6  -3  -5    2.00    1.10
  -6   3   5    2.20    1.10
   3   3  -5    3.60    1.00
   3  -6  -5    1.90    1.20
  -3  -3  -5   -0.30    1.10
   6  -4  -5  438.06   22.40
   2  -6  -5  397.36   22.40
  -6   2   5  432.06   22.50
  -6   4  -5  432.36   22.30
   4   2  -5  451.35   22.50
  -2  -4   5  418.56   22.40
  -4  -2  -5  425.26   22.50
   2  -6   5  432.36   22.20
  -2  -4  -5  435.26   22.50
   6  -2  -5  464.35   22.50
   4  -6  -5  440.76   22.40
  -6   2  -5  435.36   22.40
   2   4  -5  450.25   22.50
  -4  -2   5  426.16   22.50
  -6   4   5  437.26   22.40
  -1   6  -5   94.39    5.10
  -1  -5   5   88.49    5.20
  -5  -1  -5   94.49    5.40
   1  -6  -5   95.39    5.20
   6  -5  -5   94.79    5.10
  -6   1   5   88.69    5.40
   5   1  -5   96.89    5.40
   1  -6   5   91.49    5.10
  -5  -1   5   92.29    5.40
  -6   1  -5   93.99    5.30
  -1  -5  -5   94.79    5.30
  -6   5   5   88.89    5.40
   6  -1  -5   91.79    5.40
   5  -6  -5   97.69    5.10
   1   5  -5   93.29    5.20
  -6   6   5   -0.90    1.50
   6   0  -5   -2.30    1.10
   0  -6   5   -1.80    1.00
  -6   0   5   -2.20    1.30
   0   6  -5    0.90    0.90
  -6   0  -5   -0.40    1.10
   0  -6  -5    0.20    1.10
   6  -6  -5    0.60    0.90
  -7   3   5  124.79    6.90
  -4  -3  -5  133.49    7.00
   4   3  -5  124.49    7.10
  -3  -4   5  120.99    6.80
   3  -7  -5  115.59    6.90
  -7   4  -5  124.79    6.70
   7  -4  -5  125.69    6.80
  -3  -4  -5  123.49    6.90
   4  -7  -5  110.89    6.80
  -4  -3   5  118.39    6.90
  -7   4   5  128.49    6.90
   7  -3  -5  124.19    6.90
  -7   3  -5  125.89    6.80
  -2  -5   5    2.10    1.10
   7  -5  -5    1.90    1.10
   2  -7  -5    1.70    1.10
   5   2  -5    0.20    1.20
  -7   5  -5   -1.20    1.00
  -5  -2  -5    2.40    1.30
  -7   2   5    2.40    1.30
   2  -7  -5    1.80    1.10
   2   5  -5   -0.40    1.10
  -2  -5  -5    0.40    1.20
  -5  -2   5    1.80    1.20
  -7   2  -5    0.90    1.20
   7  -2  -5    0.10    1.30
   2  -7   5    2.00    0.90
  -7   5   5    1.70    1.30
   6   1  -5   30.20    2.90
  -1  -6   5   32.20    2.70
   7  -6  -5   34.10    2.50
   1  -7  -5   35.00    2.60
  -6  -1  -5   34.00    3.00
  -7   1   5   34.90    3.00
   1   6  -5   34.70    2.60
   1  -7   5   34.50    2.60
  -6  -1   5   34.10    3.00
   7  -1  -5   35.70    3.00
  -7   1  -5   35.00    2.90
  -7   6   5   29.10    3.00
   0  -7  -5   53.29    3.60
  -7   0   5   54.79    3.90
   7   0  -5   57.19    4.00
  -7   0  -5   48.50    3.90
   4   4  -5   -0.60    1.40
  -8   4   5   -0.90    1.30
   8  -4  -5   -0.80    1.40
  -4  -4   5   -1.80    1.40
  -4  -4  -5    1.10    1.50
  -8   4  -5    0.90    1.20
  -8   3   5   28.10    2.90
  -3  -5   5   26.70    2.70
   8  -5  -5   24.00    2.60
  -5  -3  -5   32.30    3.00
   3  -8  -5   29.70    2.40
   3  -8  -5   30.20    2.90
  -8   5  -5   31.50    2.40
   5   3  -5   27.80    2.90
  -3  -5  -5   28.80    2.90
   3   5  -5   28.90    2.70
  -5  -3   5   27.70    2.90
  -8   3  -5   31.40    2.80
   8  -3  -5   24.50    2.80
  -8   5   5   26.40    2.70
   8  -6  -5   99.09    5.70
  -6  -2  -5   95.89    6.10
   6   2  -5   94.79    6.10
  -2  -6   5  101.59    5.80
  -8   2   5   96.89    6.00
  -8   6  -5  101.59    5.50
   2  -8  -5   88.69    5.80
   2  -8  -5   98.59    5.70
  -8   6   5   97.69    5.90
   2  -8   5   99.19    5.50
  -2  -6  -5   94.99    5.90
  -8   2  -5  100.79    6.00
   2   6  -5  103.59    5.80
   8  -2  -5  103.49    6.10
  -6  -2   5  106.19    6.10
  -8   1   5    4.40    1.70
   7   1  -5   -0.60    1.70
  -1  -7   5    3.60    1.50
   1  -8  -5   -0.90    1.50
  -7  -1  -5    2.50    1.80
   8  -7  -5    3.10    1.40
  -1  -7  -5    0.80    1.60
  -7  -1   5    2.50    1.80
  -8   1  -5    2.40    1.70
   8  -1  -5   -0.30    2.00
   1  -8   5    4.10    1.40
   0  -8   5   79.59    5.00
  -8   0   5   77.49    5.40
  -8   0  -5   80.29    5.50
   0  -8  -5   75.29    5.10
   8   0  -5   80.99    5.50
  -4  -5   5   28.70    3.10
   5   4  -5   27.80    3.10
   9  -5  -5   25.70    3.00
  -5  -4  -5   25.00    3.20
  -9   5  -5   29.30    2.70
  -9   4   5   29.60    3.20
  -9   5   5   28.30    3.00
  -9   4  -5   24.30    2.90
  -5  -4   5   28.80    3.20
   4   5  -5   25.50    2.90
   9  -4  -5   27.30    3.20
  -4  -5  -5   31.00    3.20
  -3  -6   5    2.30    1.60
   6   3  -5    0.00    1.90
  -9   6  -5    0.90    1.40
  -9   3   5    2.70    1.80
   3  -9  -5   -0.20    1.40
   3  -9  -5   -0.30    1.90
  -6  -3  -5    0.60    1.90
   9  -6  -5    0.30    1.60
  -9   6   5    2.60    1.70
  -6  -3   5    2.70    1.90
  -3  -6  -5    2.40    1.60
  -9   3  -5    0.90    1.80
   9  -3  -5   -0.40    1.90
  -9   2   5   54.79    4.40
   2  -9  -5   51.99    3.70
  -7  -2  -5   55.59    4.40
   9  -7  -5   51.79    3.70
   7   2  -5   46.50    4.30
   2  -9  -5   46.60    4.00
  -2  -7   5   50.89    4.00
   9  -2  -5   58.39    6.50
   2  -9   5   50.69    3.60
  -9   7   5   45.60    4.40
  -7  -2   5   50.39    4.40
  -9   2  -5   52.29    4.20
  -2  -7  -5   51.59    4.10
  -1  -8   5   28.40    3.30
   8   1  -5   29.80    3.40
   1  -9  -5   23.80    3.10
  -8  -1  -5   33.60    3.90
  -9   1   5   26.50    3.20
  -9   1  -5   25.60    3.20
   1  -9   5   26.20    2.90
  -1  -8  -5   25.70    2.80
   9  -1  -5   23.80    3.00
  -8  -1   5   28.40    3.30
  -5  -5   5    0.20    1.80
 -10   5  -5    1.80    1.90
  -5  -5  -5    3.10    2.10
 -10   5   5    0.90    2.10
  10  -5  -5   -1.50    2.20
  -6  -4  -5   38.90    4.20
  10  -6  -5   37.00    3.90
 -10   6  -5   42.00    3.50
 -10   4   5   44.60    4.20
   6   4  -5   44.40    4.10
  -4  -6   5   42.30    4.00
  -6  -4   5   46.40    4.30
  10  -4  -5   31.70    4.20
 -10   4  -5   47.80    4.00
  -4  -6  -5   39.30    4.00
 -10   6   5   39.30    4.10
   0   0  -6 1453.65   77.39
   0   0   6 1583.94   77.39
   0   1  -6    6.90    0.80
   0  -1  -6    7.50    0.90
   0   1   6    7.20    0.90
   1  -1   6    7.30    0.90
  -1   0   6    4.50    0.70
   0  -1   6    7.40    0.80
  -1   1  -6    8.60    1.00
   1   0  -6    7.40    0.90
  -1   0  -6    7.10    0.80
  -2   1  -6 4597.34  238.48
  -1  -1  -6 4661.83  239.28
   1  -2   6 4377.06  238.88
   1  -2  -6 3963.60  240.38
   1   1  -6 4919.51  239.08
   1   1   6 4596.24  239.08
   2  -1   6 4461.75  237.78
  -1   2  -6 4767.22  238.48
   2  -1  -6 4867.51  239.88
  -1   2   6 4231.88  241.08
  -1  -1   6 4958.00  239.08
  -2   1   6 4680.23  239.68
   0  -2   6   27.80    1.80
  -2   2  -6   30.20    1.90
  -2   2   6   30.30    2.10
   2  -2  -6   32.70    2.00
   2   0  -6   31.00    1.90
   0   2  -6   28.80    1.80
   1  -3  -6   15.60    1.30
   3  -2  -6   11.80    1.20
  -3   1   6   11.80    1.20
   2   1  -6   11.60    1.20
   2  -3   6   13.00    1.10
  -1  -2   6   11.70    1.10
  -1   3  -6   10.10    1.00
  -2   3   6   11.10    1.40
   1  -3   6   13.70    1.10
  -3   2   6   11.10    1.20
  -2  -1   6   11.60    1.10
  -2   3  -6   11.80    1.00
   2  -3  -6   11.20    1.40
   1   2  -6   11.50    1.10
   3  -1  -6   11.30    1.20
  -3   3  -6 2382.76  127.99
  -3   3   6 2577.14  128.19
   3  -3  -6 2590.74  128.09
   2  -4  -6  203.88   11.50
  -4   2   6  221.28   11.40
   2   2  -6  226.88   11.40
   4  -2  -6  225.28   11.40
  -2  -2   6  218.18   11.40
   2  -4   6  218.08   11.30
   1  -4  -6    4.50    0.80
  -1   4  -6    3.50    0.70
  -4   1   6    3.20    0.90
   3   1  -6    3.80    0.80
  -1  -3   6    3.00    0.80
  -3   4   6    4.10    1.10
   1  -4   6    3.10    0.70
  -4   1  -6    3.50    0.80
   1   3  -6    4.00    0.80
  -4   3   6    5.30    0.90
  -3  -1   6    3.80    0.90
   4  -1  -6    4.50    1.00
   3  -4  -6    3.10    0.90
  -4   0  -6   19.50    1.90
   0  -4   6   22.50    1.70
  -4   4   6   24.60    2.20
   0   4  -6   20.50    1.70
   4  -4  -6   23.00    1.80
   4   0  -6   22.70    2.00
  -4   0   6   22.30    1.90
  -3  -2  -6    2.40    1.00
   5  -3  -6    3.90    0.90
  -5   2   6    3.10    0.90
  -2   5  -6    1.40    0.60
   3   2  -6    2.80    1.00
   2  -5  -6    3.60    1.00
  -2  -3   6    3.00    0.90
   5  -2  -6    2.50    1.00
  -3  -2   6    2.20    0.90
  -5   2  -6    2.10    0.80
   3  -5  -6    1.60    1.10
   2  -5   6    1.00    0.70
  -5   3   6    3.50    1.00
   2   3  -6    3.90    0.90
  -4  -1  -6 1604.74   81.79
  -4   5   6 1477.95   81.69
   5  -4  -6 1675.43   81.69
  -5   1   6 1604.44   81.69
   4   1  -6 1624.74   81.79
  -1   5  -6 1608.74   81.59
   1  -5  -6 1520.45   81.69
  -1  -4   6 1595.14   81.69
   1  -5   6 1609.84   81.59
   1   4  -6 1616.84   81.69
  -5   4   6 1623.14   81.79
   4  -5  -6 1646.64   81.69
  -5   1  -6 1589.24   81.69
   5  -1  -6 1674.23   81.79
  -4  -1   6 1572.04   81.69
  -5   5   6   11.20    1.70
  -5   0  -6   11.30    1.40
   0  -5   6   11.70    1.50
   5   0  -6   10.50    1.50
  -5   0   6   10.30    1.40
   5  -5  -6   11.80    1.30
   0   5  -6    9.60    1.20
   3   3  -6 1490.25   75.49
  -6   3  -6 1488.55   75.29
   3  -6  -6 1343.27   75.49
  -6   3   6 1523.85   75.49
  -3  -3  -6 1464.25   75.49
  -3  -3   6 1461.15   75.39
   6  -3  -6 1577.24   75.39
  -2  -4   6   15.20    1.70
  -6   4  -6   14.60    1.50
   2  -6  -6   14.90    1.90
   4   2  -6   13.20    1.60
  -6   2   6   13.40    1.60
   6  -4  -6   14.00    1.80
  -2   6  -6   11.50    1.30
  -4  -2  -6   15.90    1.70
   6  -2  -6   15.70    2.00
  -6   4   6   15.80    1.70
  -6   2  -6   14.30    1.90
  -2  -4  -6   17.20    1.70
   4  -6  -6   15.50    1.90
   2  -6   6   15.40    1.40
   2   4  -6   12.90    1.50
  -4  -2   6   16.50    1.80
  -1   6  -6    6.90    1.00
   6  -5  -6    8.60    1.20
  -5  -1  -6    5.80    1.30
   5   1  -6    8.80    1.60
  -5   6   6    7.20    1.30
  -1  -5   6    7.70    1.20
  -6   1   6    7.70    1.50
  -5  -1   6    7.40    1.50
   5  -6  -6    8.20    1.20
   1  -6   6    7.90    1.10
  -6   5   6    8.00    1.50
  -1  -5  -6    8.00    1.30
  -6   1  -6    7.30    1.30
   1   5  -6    7.60    1.20
   6  -1  -6    8.20    1.50
   6  -6  -6    8.40    1.20
  -6   6   6    9.30    1.90
   0   6  -6    9.40    1.30
   0  -6  -6    8.10    1.40
  -6   0  -6    7.90    1.50
   6   0  -6    7.30    1.50
   0  -6   6    6.50    1.20
  -6   0   6    6.10    1.40
  -3  -4   6    8.50    1.60
  -4  -3  -6    7.50    1.60
   7  -4  -6    6.90    1.40
  -7   3   6    6.90    1.50
   4   3  -6    6.00    2.40
   3  -7  -6    8.20    1.60
  -7   4  -6    7.40    1.20
   4  -7  -6    5.10    1.40
  -7   3  -6    7.10    1.30
  -4  -3   6    6.00    1.50
  -7   4   6    7.30    1.50
   7  -3  -6    4.90    1.40
  -3  -4  -6    7.50    1.50
   3   4  -6    6.00    1.50
   7  -5  -6  401.36   20.30
  -7   2   6  386.66   20.40
  -5  -2  -6  410.36   20.50
  -7   5  -6  387.66   20.10
  -2  -5   6  392.16   20.30
   2  -7  -6  353.36   20.30
   5  -7  -6  391.06   20.20
   7  -2  -6  410.56   20.40
  -2  -5  -6  381.26   20.40
  -7   5   6  385.76   20.40
  -5  -2   6  400.36   20.40
   2   5  -6  392.56   20.30
   2  -7   6  392.26   20.10
  -7   2  -6  386.86   20.30
  -6  -1  -6    1.40    1.40
   7  -6  -6    2.90    1.20
  -7   1   6    3.00    1.60
   1  -7  -6    1.40    1.20
  -1  -6   6    1.70    1.50
   1   6  -6    1.60    1.20
   7  -1  -6    0.40    1.50
  -6  -1   6    2.00    1.40
  -1  -6  -6    1.30    1.20
   1  -7   6    2.10    1.10
  -7   6   6    4.70    1.70
   6  -7  -6    2.90    1.10
  -7   1  -6    3.40    1.50
   0  -7  -6    1.60    1.30
   7  -7  -6   -1.10    1.20
   0  -7   6    2.80    1.60
  -7   0   6    0.70    1.60
  -7   0  -6   -2.80    1.60
  -4  -4  -6   10.20    1.90
   4  -8  -6    8.50    1.90
   4   4  -6    8.70    1.80
  -4  -4   6   11.80    1.90
   8  -4  -6    7.70    1.70
  -8   4  -6    8.40    1.50
  -8   4   6   11.80    1.80
  -8   5  -6    4.30    1.20
  -3  -5   6    4.40    1.60
   3  -8  -6    8.20    1.80
   5   3  -6    2.40    1.50
  -5  -3  -6    6.30    1.80
  -8   3   6    4.40    1.60
   8  -5  -6    2.70    1.50
   3  -8  -6    2.90    1.30
  -5  -3   6    5.50    1.80
  -8   3  -6    5.50    1.60
   8  -3  -6    4.80    1.70
   3   5  -6    5.90    1.50
   5  -8  -6    2.50    1.30
  -3  -5  -6    4.20    1.50
  -8   5   6    1.50    1.50
  -6  -2  -6   11.20    2.00
   8  -6  -6    7.40    1.60
  -2  -6   6    7.00    1.60
   6   2  -6    9.40    2.00
   2  -8  -6    7.40    1.60
   2  -8  -6   10.30    1.80
  -8   6  -6    8.00    1.30
  -8   2   6    8.50    1.90
   2   6  -6    7.80    1.60
  -8   2  -6    9.90    1.90
  -8   6   6    5.10    1.90
   2  -8   6    7.70    1.40
   8  -2  -6    5.50    1.80
  -6  -2   6    7.80    1.80
  -2  -6  -6    9.00    1.70
   1  -8  -6  371.36   19.40
   7   1  -6  387.96   19.70
  -7  -1  -6  366.16   19.70
   1  -8  -6  358.46   19.50
  -1  -7   6  385.56   19.50
   8  -7  -6  381.76   19.30
  -8   1   6  366.06   19.60
  -1  -7  -6  369.96   19.50
  -8   1  -6  372.46   19.60
  -8   7   6  362.56   19.80
  -7  -1   6  369.36   19.60
   8  -1  -6  363.06   20.00
   1  -8   6  380.46   19.30
  -8   0   6    2.70    2.00
  -8   0  -6    6.20    2.10
   8   0  -6    1.50    2.00
   0  -8  -6    4.10    1.80
   0  -8   6    3.60    1.60
  -5  -4  -6    0.00    1.90
   9  -5  -6   -0.20    1.70
  -9   4   6    0.80    1.90
   4  -9  -6    0.80    1.20
  -4  -5   6   -0.40    1.50
   5   4  -6    0.00    1.80
   4  -9  -6    1.30    1.90
  -9   5  -6   -0.70    1.40
   9  -4  -6   -3.80    1.70
  -4  -5  -6   -0.70    1.60
   4   5  -6    2.00    1.80
  -5  -4   6    1.80    1.60
  -9   4  -6   -1.10    1.60
  -9   5   6    1.60    1.70
   9  -6  -6  205.08   10.80
  -6  -3  -6  199.38   11.20
  -9   3   6  202.48   11.10
   6   3  -6  204.08   11.10
  -9   6  -6  203.88   10.70
  -3  -6   6  192.58   11.00
   3  -9  -6  192.98   10.70
   3  -9  -6  178.18   11.10
  -3  -6  -6  193.18   11.00
   3   6  -6  203.98   11.00
  -6  -3   6  197.38   11.10
  -9   6   6  196.18   11.00
   9  -3  -6  216.78   11.10
  -9   3  -6  212.08   11.00
  -9   2   6    2.50    2.00
   7   2  -6   -1.80    1.80
   2  -9  -6    0.40    1.60
   9  -7  -6    3.30    1.70
  -2  -7   6    1.60    1.70
  -7  -2  -6    2.10    2.00
   2  -9  -6   -0.30    1.90
  -9   7   6   -1.40    2.20
  -9   2  -6    3.50    2.00
  -7  -2   6    1.70    2.00
   9  -2  -6    1.80    2.20
  -2  -7  -6    3.50    1.80
  -9   1   6    5.20    2.20
   8   1  -6    5.80    2.40
   1  -9  -6    3.00    2.20
  -8  -1  -6    5.90    2.40
  -1  -8   6    2.70    1.90
   1  -9  -6    5.00    1.90
  -9   1  -6    5.70    2.20
   9  -1  -6    2.40    2.20
   1  -9   6    5.20    1.80
  -8  -1   6    2.40    2.10
  -1  -8  -6    5.50    2.00
 -10   5   6  177.28   10.30
   5   5  -6  180.78   10.40
  -5  -5   6  180.88   10.40
  10  -5  -6  188.08   10.30
  -5  -5  -6  176.88   10.40
 -10   5  -6  188.68   10.10
 -10   6  -6    0.90    1.80
  -4  -6   6    4.00    2.00
   6   4  -6    2.40    2.20
   4 -10  -6    6.70    3.90
  -6  -4  -6    7.80    2.50
  10  -6  -6   -0.10    2.10
   4 -10  -6    3.70    1.60
 -10   4   6    5.30    2.50
 -10   4  -6    4.40    2.10
  10  -4  -6    0.60    2.30
 -10   6   6    6.40    2.40
  -4  -6  -6    0.20    2.00
  -6  -4   6    2.60    2.20
   0   0  -7    0.70    0.70
   0   0   7   -0.40    0.80
   0   1   7  249.28   12.70
   0   1  -7  250.97   12.70
  -1   0   7  248.48   12.70
   0  -1   7  252.37   12.70
   1   0  -7  252.17   12.70
  -1   1   7  249.88   12.80
   0  -1  -7  237.38   12.70
  -1   0  -7  235.68   12.70
  -1   1  -7  230.98   12.70
   1  -1   7  233.18   12.70
  -1  -1   7   -0.40    0.50
   1  -2   7   -1.50    0.70
  -1   2   7    1.20    0.80
  -1   2  -7   -0.10    0.60
  -1  -1  -7    2.10    0.60
  -2   1   7   -0.30    0.60
   2  -1  -7    0.00    0.70
   1  -2  -7    0.10    0.80
   1   1  -7    0.60    0.50
  -2   2  -7 1029.40   54.59
   2   0  -7 1074.79   54.59
   2  -2  -7 1093.09   54.59
   0  -2  -7 1020.60   54.59
  -2   0   7 1070.19   54.59
   0  -2   7 1093.39   54.49
   0   2  -7 1071.29   54.49
  -2   2   7 1104.49   54.69
  -1   3  -7  145.59    7.40
  -2   3   7  134.39    7.70
  -3   2  -7  140.49    7.50
  -3   1   7  148.29    7.60
  -1  -2   7  140.79    7.50
   2  -3   7  131.89    7.50
   3  -2  -7  145.79    7.50
   2   1  -7  145.89    7.50
   1  -3  -7  137.19    7.60
  -2   3  -7  145.99    7.50
   3  -1  -7  147.09    7.50
   2  -3  -7  131.29    7.70
   1   2  -7  146.19    7.50
  -2  -1   7  145.39    7.50
   1  -3   7  144.79    7.50
  -3   2   7  138.99    7.60
   0  -3  -7   49.20    2.70
   3  -3  -7   43.20    2.80
   0  -3   7   42.60    2.60
  -3   3  -7   45.10    2.70
  -3   3   7   39.60    2.90
   0   3  -7   43.10    2.60
  -3   0   7   43.20    2.70
   3   0  -7   42.40    2.70
   2  -4   7   -1.40    0.80
  -4   2   7   -0.10    0.70
  -2  -2   7    0.00    0.70
   4  -2  -7    1.60    0.80
   2   2  -7    0.60    0.70
  -2   4  -7    0.00    0.50
   2  -4  -7   -0.60    0.90
  -3   4   7  104.59    6.40
  -1  -3   7  114.89    6.20
  -1   4  -7  116.19    6.10
  -4   1   7  111.19    6.20
   1  -4  -7  130.89    6.30
   3   1  -7  117.49    6.20
   4  -3  -7  113.99    6.20
  -4   3  -7  112.29    6.10
  -4   3   7  115.89    6.30
   1   3  -7  119.29    6.20
   3  -4  -7  104.89    6.30
  -3  -1   7  113.99    6.20
   1  -4   7  114.59    6.10
  -3   4  -7  114.59    6.00
   4  -1  -7  116.09    6.30
  -4   0  -7  506.35   25.70
  -4   4   7  510.65   25.80
   4  -4  -7  507.25   25.60
   4   0  -7  521.45   25.70
  -4   0   7  492.35   25.70
   0  -4   7  493.55   25.60
   0   4  -7  502.75   25.60
  -4   4  -7  452.05   25.50
  -5   2   7  140.49    7.60
   3   2  -7  144.39    7.60
  -3  -2  -7  135.69    7.60
   5  -3  -7  144.29    7.50
  -5   3  -7  138.69    7.40
  -2   5  -7  141.39    7.30
  -2  -3   7  137.39    7.50
   2  -5  -7  136.19    7.60
  -5   2  -7  143.29    7.50
   5  -2  -7  152.38    7.60
   2  -5   7  134.89    7.40
  -3  -2   7  138.29    7.50
  -5   3   7  140.59    7.60
   3  -5  -7  123.99    7.60
   2   3  -7  142.59    7.50
  -4   5   7   20.90    2.20
  -5   4  -7   19.10    1.50
  -1  -4   7   17.30    1.80
  -5   4  -7   23.30    1.60
   4   1  -7   18.40    2.00
  -4  -1  -7   17.20    2.00
   5  -4  -7   21.20    1.90
  -5   1   7   18.60    2.00
   1  -5  -7   21.90    1.90
  -1   5  -7   17.80    1.60
   5  -1  -7   20.90    2.00
  -5   1  -7   18.00    1.90
   4  -5  -7   22.30    2.00
  -5   4   7   16.80    2.10
   1  -5   7   17.70    1.70
  -4  -1   7   18.50    2.10
   1   4  -7   20.50    1.80
   0  -5   7   77.29    4.40
  -5   5   7   79.79    4.90
   0   5  -7   80.89    4.40
  -5   0   7   76.69    4.60
   5   0  -7   78.49    4.70
  -5   0  -7   82.89    4.60
   5  -5  -7   75.09    4.50
  -3  -3  -7   -0.50    1.20
   6  -3  -7    0.20    1.10
  -6   3   7    0.40    1.20
  -3  -3   7    2.00    1.10
   3   3  -7    0.70    1.00
   3  -6  -7    1.60    1.40
  -2  -4   7  220.38   11.70
   4   2  -7  223.98   11.80
  -2   6  -7  222.98   11.50
  -6   2   7  217.88   11.80
   6  -4  -7  232.28   11.70
  -6   4  -7  221.08   11.60
  -4  -2  -7  221.98   11.80
   2  -6  -7  203.88   11.80
  -6   2  -7  219.88   11.70
  -2  -4  -7  221.78   11.80
  -4  -2   7  222.08   11.80
   2   4  -7  224.88   11.70
   6  -2  -7  229.58   11.80
   2  -6   7  223.18   11.60
   4  -6  -7  215.98   11.80
  -6   4   7  226.18   11.80
   5   1  -7   45.10    3.10
  -5  -1  -7   44.70    3.10
  -1   6  -7   44.20    2.70
   6  -5  -7   42.30    2.90
  -6   1   7   44.50    3.10
   1  -6  -7   40.30    3.00
  -5   6   7   36.50    3.00
  -1  -5   7   39.50    2.90
   1  -6   7   41.30    2.70
   1   5  -7   41.20    2.90
   5  -6  -7   43.90    2.80
  -1  -5  -7   42.70    3.00
  -5  -1   7   43.10    3.10
  -6   5   7   40.00    3.20
  -6   1  -7   44.60    3.00
   6  -1  -7   41.40    3.10
  -6   6   7    5.10    1.80
   6  -6  -7    3.00    1.20
  -6   0   7    1.70    1.30
   0  -6   7    4.40    1.10
   0   6  -7    3.80    1.10
   0  -6  -7    5.50    1.30
   6   0  -7    4.10    1.50
  -6   0  -7    5.30    1.50
   3  -7  -7   41.20    3.40
  -7   3   7   45.70    3.30
   7  -4  -7   47.90    3.20
  -7   4  -7   42.60    2.90
   4   3  -7   43.80    3.20
  -4  -3  -7   43.40    3.20
  -3  -4   7   43.10    3.20
  -3  -4  -7   44.40    3.20
  -4  -3   7   42.40    3.20
   4  -7  -7   40.00    3.20
  -7   4   7   46.70    3.20
   3   4  -7   44.60    3.10
  -7   3  -7   43.70    3.00
   7  -3  -7   44.90    3.30
  -5  -2  -7   19.30    2.40
  -7   2   7   19.00    2.10
   5   2  -7   15.00    1.90
  -2  -5   7   19.00    2.30
   7  -5  -7   16.50    1.90
   2  -7  -7   18.50    2.40
  -7   5  -7   20.00    1.80
  -7   5   7   16.50    2.00
  -5  -2   7   19.70    2.40
   2   5  -7   18.60    2.10
  -7   2  -7   19.10    2.30
   7  -2  -7   19.40    2.10
   2  -7   7   17.60    1.70
   5  -7  -7   19.20    2.10
   1  -7  -7   35.00    3.60
  -1   7  -7   40.20    2.70
  -7   1   7   38.70    3.30
   7  -6  -7   40.00    2.90
   6   1  -7   42.70    3.30
  -6   7   7   33.20    2.90
   1  -7  -7   41.40    3.10
  -6  -1  -7   39.90    3.30
  -1  -6   7   37.70    3.40
   6  -7  -7   42.40    2.80
  -7   1  -7   37.10    3.20
   1   6  -7   36.50    2.90
  -6  -1   7   39.90    3.30
   7  -1  -7   36.60    3.20
  -7   6   7   32.50    3.50
  -1  -6  -7   40.00    3.00
   1  -7   7   40.80    2.80
   0   7  -7   49.10    3.30
   0  -7  -7   47.30    3.50
  -7   0   7   52.29    3.90
  -7   0  -7   42.60    3.80
   0  -7   7   49.40    3.40
   7   0  -7   52.79    3.80
   7  -7  -7   47.70    3.30
  -7   7   7   39.20    3.90
  -4  -4  -7   -0.30    1.40
   4   4  -7   -1.40    1.20
  -8   4   7    0.60    1.50
   4  -8  -7    0.90    1.60
  -8   4  -7    0.40    1.20
  -4  -4   7    1.50    1.50
   8  -4  -7   -2.60    1.50
  -8   3   7   22.70    2.90
   5   3  -7   20.80    2.60
  -5  -3  -7   24.20    2.40
  -3  -5   7   22.70    2.70
  -8   5  -7   23.80    2.20
   3  -8  -7   25.50    3.10
   8  -5  -7   24.60    2.70
   3   5  -7   18.70    2.50
  -3  -5  -7   25.30    2.70
   5  -8  -7   18.90    2.50
   8  -3  -7   24.90    2.80
  -8   3  -7   25.20    2.70
  -5  -3   7   23.10    2.80
  -8   5   7   21.60    2.80
  -6  -2  -7   71.19    4.70
  -8   6  -7   63.79    3.80
   8  -6  -7   64.79    4.30
  -2  -6   7   64.89    4.40
   6   2  -7   64.49    4.50
  -8   2   7   73.89    4.70
   2  -8  -7   62.49    4.50
   2  -8  -7   64.29    4.20
  -2  -6  -7   64.79    4.40
   2  -8   7   64.49    4.00
  -8   2  -7   66.69    4.50
  -6  -2   7   67.49    4.60
   8  -2  -7   61.39    4.60
   2   6  -7   64.09    4.30
   6  -8  -7   51.59    4.40
  -8   6   7   67.29    4.60
  -8   1   7    4.80    2.00
  -7  -1  -7    6.70    1.90
   8  -7  -7    5.30    1.60
  -1  -7   7    6.20    1.70
   1  -8  -7    4.10    1.80
   7   1  -7    3.70    1.80
   1  -8  -7    5.30    1.70
   8  -1  -7    3.70    1.80
  -1  -7  -7    4.50    1.60
   1  -8   7    5.60    1.50
   1   7  -7    3.80    1.50
   7  -8  -7    5.60    1.50
  -8   7   7    9.70    2.40
  -7  -1   7    6.90    2.10
  -8   1  -7    6.30    1.80
   0  -8  -7   33.10    3.30
   0  -8   7   37.40    3.30
  -8   0  -7   38.30    3.90
  -8   0   7   36.30    4.00
   8   0  -7   28.70    3.80
  -9   5  -7   24.80    2.70
  -4  -5   7   23.90    3.10
   4  -9  -7   23.30    2.60
   5   4  -7   25.50    3.20
  -5  -4  -7   25.50    2.90
  -9   4   7   27.50    3.20
   9  -5  -7   27.70    3.10
   4  -9  -7   25.90    2.90
   4   5  -7   23.10    3.00
  -5  -4   7   27.20    3.30
   9  -4  -7   28.70    3.30
  -4  -5  -7   25.30    3.30
  -9   5   7   28.20    3.20
   5  -9  -7   21.90    2.80
  -9   4  -7   23.40    3.00
  -6  -3  -7    6.40    2.10
  -9   6  -7    9.00    1.60
  -9   3   7    8.10    2.20
   6   3  -7    8.00    2.40
   9  -6  -7    5.40    1.90
  -3  -6   7    8.80    2.10
   3  -9  -7    7.90    2.30
   3  -9  -7    5.10    1.60
  -6  -3   7    5.70    2.10
   3   6  -7    4.20    1.80
  -3  -6  -7    6.10    1.90
  -9   3  -7    9.10    2.00
  -9   6   7    4.60    2.10
   9  -3  -7    4.80    2.10
   2  -9  -7   20.90    2.70
  -2  -7   7   22.00    2.40
  -9   2   7   15.70    2.90
  -7  -2  -7   23.60    2.90
   7   2  -7   15.10    2.50
   9  -7  -7   17.20    2.20
   2  -9  -7   20.40    2.70
  -9   7   7   15.60    2.90
  -9   2  -7   21.50    2.60
   2  -9   7   19.70    2.50
  -2  -7  -7   21.90    2.60
   9  -2  -7   20.40    2.70
  -7  -2   7   16.00    2.40
   1  -9  -7   10.90    2.10
  -1  -8   7   11.20    2.10
  -9   1   7   14.60    2.70
  -8  -1  -7    7.40    2.60
   9  -8  -7   10.50    2.00
   1  -9  -7   10.00    2.40
   8   1  -7    5.00    2.30
  -1  -8  -7    9.70    2.10
   1  -9   7   12.50    2.00
  -9   1  -7   10.40    2.30
  -8  -1   7    6.80    2.40
   9  -1  -7    7.70    2.40
 -10   5  -7    4.10    2.00
  -5  -5  -7    1.90    2.00
   5   5  -7    0.70    2.30
  10  -5  -7   -0.30    2.30
 -10   5   7    4.50    2.40
  -5  -5   7    1.60    2.00
   0   0   8   46.00    2.90
   0   0  -8   44.60    2.80
  -1   0  -8   77.69    4.30
  -1   0   8   79.99    4.30
   0   1  -8   77.89    4.30
  -1   1   8   79.69    4.40
   0  -1  -8   77.69    4.40
   0  -1   8   75.69    4.30
   0   1   8   73.09    4.30
   1   0  -8   78.79    4.30
   1  -1   8   73.09    4.30
  -1   1  -8   74.69    4.30
   1  -1  -8   75.19    4.40
  -2   1  -8   32.80    2.10
  -1  -1  -8   32.00    2.00
  -1   2  -8   30.90    2.10
  -1  -1   8   32.10    2.10
  -2   1   8   28.70    2.10
   1   1  -8   31.80    2.00
   2  -1  -8   31.40    2.10
  -1   2   8   30.10    2.30
   1  -2   8   30.70    2.20
   1  -2  -8   31.40    2.30
  -2   2  -8 2261.07  118.39
   0  -2  -8 2215.78  118.29
   2  -2   8 2241.28  118.29
   2  -2  -8 2336.57  118.39
  -2   2   8 2466.55  118.49
  -2   0   8 2348.36  118.29
   2   0  -8 2370.86  118.29
   0  -2   8 2356.76  118.29
  -1   3  -8   19.70    1.50
  -2   3   8   19.80    1.90
   3  -2  -8   20.70    1.70
  -3   1   8   19.90    1.60
  -3   2  -8   20.90    1.50
   2   1  -8   20.90    1.60
  -1  -2   8   20.50    1.60
   2  -3   8   16.90    1.60
   1  -3  -8   17.70    1.80
   1   2  -8   19.20    1.50
   2  -3  -8   18.70    1.90
   1  -3   8   18.40    1.60
   3  -1  -8   19.80    1.60
  -2  -1   8   19.60    1.60
  -2   3  -8   18.20    1.60
  -3   2   8   17.20    1.70
   0   3  -8   15.70    1.30
  -3   0   8   15.90    1.50
  -3   3   8   14.40    1.80
   0  -3  -8   15.90    1.50
   0  -3   8   14.60    1.40
  -3   3  -8   15.90    1.60
   3   0  -8   16.10    1.50
   3  -3  -8   14.20    1.60
  -2  -2   8   55.29    3.30
   4  -2  -8   55.49    3.30
   2  -4  -8   50.29    3.50
  -2   4  -8   58.39    3.10
   2   2  -8   55.19    3.30
   2  -4   8   53.19    3.30
  -4   2   8   57.39    3.40
   4  -3  -8   28.60    2.10
   3   1  -8   26.30    2.10
  -4   3  -8   29.30    1.90
  -4   1   8   23.30    2.10
  -3   4   8   23.70    2.30
   1  -4  -8   27.80    2.10
  -1   4  -8   26.00    1.80
  -1  -3   8   27.00    1.90
  -4   3   8   28.20    2.20
  -3   4  -8   27.70    1.80
   1  -4   8   24.00    1.90
   3  -4  -8   23.00    2.20
   4  -1  -8   27.80    2.10
  -3  -1   8   26.80    2.10
   1   3  -8   28.70    2.00
   0  -4   8 1207.68   61.49
   0  -4  -8 1183.98   61.49
  -4   0   8 1202.08   61.49
  -4   4   8 1255.57   61.69
   4  -4  -8 1240.98   61.49
   4   0  -8 1255.17   61.59
   0   4  -8 1191.88   61.39
  -4   4  -8 1101.49   61.49
   5  -3  -8  118.79    6.30
   3   2  -8  117.59    6.30
  -5   2   8  112.49    6.30
  -5   3  -8  110.89    6.20
  -2   5  -8  119.99    6.10
  -2  -3   8  115.39    6.30
   2  -5  -8  109.09    6.50
   3  -5  -8  106.69    6.50
   2  -5   8  112.79    6.20
   5  -2  -8  115.39    6.30
  -5   3   8  114.19    6.40
  -3  -2   8  116.19    6.30
  -5   2  -8  113.69    6.20
   2   3  -8  118.79    6.30
   4   1  -8    9.80    1.40
  -4  -1  -8   11.30    1.40
   1  -5  -8   13.60    1.70
  -5   4  -8   12.90    1.50
  -4   5   8   11.90    1.80
  -1  -4   8   12.10    1.40
  -1   5  -8   12.30    1.20
  -5   4  -8   10.30    1.10
   5  -4  -8   11.80    1.40
  -5   1   8   11.20    1.50
  -5   1  -8   11.20    1.40
  -4  -1   8    9.80    1.30
  -5   4   8   10.30    1.60
   5  -1  -8   10.40    1.40
   4  -5  -8   11.80    1.50
   1  -5   8   12.10    1.30
   1   4  -8   10.70    1.30
   0  -5   8   31.60    2.30
  -5   0  -8   29.00    2.50
  -5   5   8   30.40    2.90
  -5   0   8   30.40    2.50
   5   0  -8   30.90    2.60
   5  -5  -8   29.70    2.40
   0   5  -8   31.90    2.20
   6  -3  -8    8.70    1.50
   3   3  -8   10.30    1.50
  -3  -3  -8    9.10    1.60
  -6   3   8   11.00    1.60
  -6   3  -8   11.50    1.30
   3  -6  -8   10.80    1.80
  -3  -3   8   10.60    1.50
  -2   6  -8  565.94   28.60
   6  -4  -8  584.24   28.80
  -6   4  -8  548.65   28.60
  -2  -4   8  548.05   28.80
  -6   2   8  563.34   28.80
   4   2  -8  569.84   28.90
  -4  -2  -8  562.84   28.90
   2  -6  -8  522.45   28.90
  -6   2  -8  568.54   28.80
  -4  -2   8  553.94   28.80
   2   4  -8  563.04   28.80
   4  -6  -8  523.05   28.80
  -6   4   8  552.44   28.80
   6  -2  -8  581.64   28.80
   2  -6   8  568.24   28.70
  -1  -5   8    4.20    1.20
  -1   6  -8    4.60    1.00
  -6   1   8    4.20    1.40
  -6   5  -8    6.30    1.10
  -5  -1  -8    4.10    1.30
   1  -6  -8    6.90    1.30
  -5   6   8    2.80    1.50
   5   1  -8    3.10    1.40
   6  -5  -8    1.50    1.20
   1   5  -8    4.50    1.20
  -5  -1   8    4.90    1.50
   1  -6   8    4.20    1.10
  -6   1  -8    6.30    1.40
   5  -6  -8    4.20    1.30
   6  -1  -8    3.90    1.40
  -6   5   8    3.70    1.60
   6  -6  -8   35.50    2.60
   0   6  -8   32.00    2.40
  -6   0   8   33.20    2.90
   6   0  -8   29.10    2.80
  -6   0  -8   29.40    2.70
  -6   6   8   27.30    3.20
   0  -6   8   32.20    2.50
   4   3  -8   11.70    1.70
  -7   3   8   14.20    1.90
  -7   4  -8   11.90    1.40
   7  -4  -8   14.30    1.80
  -4  -3  -8   13.00    1.80
   3  -7  -8   12.00    2.00
   3   4  -8    9.90    1.50
  -7   3  -8   12.30    1.60
   4  -7  -8    9.10    1.80
  -4  -3   8   16.20    2.20
  -3  -4  -8   12.60    1.90
  -7   4   8   14.10    1.80
   7  -3  -8   13.20    1.80
   7  -5  -8    2.60    1.30
   2  -7  -8    3.70    1.60
  -7   5  -8    3.50    1.00
  -2   7  -8    2.50    0.90
   5   2  -8    1.20    1.40
  -5  -2  -8    3.00    1.40
  -7   2   8    0.50    1.40
  -2  -5   8    1.90    1.40
   2   5  -8    2.10    1.20
   7  -2  -8    0.90    1.50
  -2  -5  -8    2.90    1.40
   5  -7  -8    1.40    1.30
  -7   5   8    0.80    1.50
  -7   2  -8    6.00    1.40
   2  -7   8    0.80    1.10
  -5  -2   8    3.00    1.60
  -7   1   8   28.20    2.90
   1  -7  -8   26.40    2.60
  -1  -6   8   25.40    2.40
  -6   7   8   19.90    2.30
   7  -6  -8   21.90    2.40
  -6  -1  -8   23.80    2.80
  -1   7  -8   23.60    2.10
   6   1  -8   23.40    2.60
   1   6  -8   20.70    2.30
  -7   6   8   28.20    2.90
  -7   1  -8   22.30    2.70
  -6  -1   8   24.20    2.90
   1  -7   8   21.80    2.30
   6  -7  -8   21.90    2.40
   7  -1  -8   23.70    2.80
  -1  -6  -8   22.70    2.60
   0   7  -8   74.79    4.60
   0  -7   8   76.29    4.60
  -7   7   8   66.39    5.10
   0  -7  -8   72.19    4.80
   7  -7  -8   75.29    4.50
  -7   0  -8   74.29    5.00
   7   0  -8   75.09    5.00
  -7   0   8   76.99    5.70
   4  -8  -8   22.20    2.90
  -4  -4  -8   21.00    2.30
  -8   4  -8   20.60    2.50
  -8   4   8   21.80    2.80
   4   4  -8   20.20    2.50
  -4  -4   8   26.50    2.80
   8  -4  -8   23.50    2.80
  -8   3   8    4.20    1.80
  -8   5  -8    4.40    1.30
   3  -8  -8    2.60    2.00
   8  -5  -8    5.40    1.70
  -5  -3  -8    5.50    1.70
  -3  -5   8    3.90    1.50
   5   3  -8    1.60    1.50
  -8   3  -8    4.10    1.60
  -5  -3   8    5.60    1.60
   8  -3  -8    4.90    1.80
  -8   5   8    3.10    1.70
   3   5  -8    5.10    1.40
   5  -8  -8    2.80    1.70
  -3  -5  -8    2.70    1.50
   2  -8  -8  180.68   10.10
   6   2  -8  184.38   10.40
  -8   6  -8  174.08    9.90
   2  -8  -8  174.58   10.40
   8  -6  -8  198.48   10.20
  -8   2   8  188.88   10.40
  -2  -6   8  183.18   10.20
  -6  -2  -8  190.88   10.50
  -8   2  -8  189.78   10.30
   2   6  -8  188.58   10.20
   8  -2  -8  190.58   10.40
   6  -8  -8  188.48   10.00
  -8   6   8  195.18   10.50
   2  -8   8  190.48   10.00
  -2  -6  -8  179.58   10.30
  -6  -2   8  193.38   10.40
   7   1  -8   -0.60    1.70
  -7  -1  -8    6.20    2.00
  -1  -7   8   -1.00    1.50
   8  -7  -8    1.40    1.60
   1  -8  -8    2.30    1.60
   1  -8  -8    1.70    1.80
  -7  -1   8   -1.20    1.80
   1   7  -8    2.20    1.50
  -1  -7  -8    3.30    1.60
   8  -1  -8    1.90    1.90
   7  -8  -8    2.10    1.50
   1  -8   8   -0.30    1.60
  -8   1  -8    3.00    1.80
  -8   7   8    0.90    2.40
   8   0  -8   86.09    5.80
  -8   0  -8   86.99    5.70
   0  -8  -8   78.39    5.30
   8  -8  -8   83.59    5.00
  -8   0   8   86.99    5.80
   0  -8   8   84.29    5.20
  -8   8   8   61.29    6.90
   5   4  -8   27.30    3.30
  -9   4   8   30.70    3.50
  -9   5  -8   31.40    3.00
  -5  -4  -8   34.60    3.70
   4  -9  -8   36.20    3.80
  -4  -5   8   40.70    3.50
   9  -5  -8   32.50    3.50
  -9   4  -8   31.70    3.30
  -9   5   8   35.60    3.60
  -5  -4   8   34.90    3.60
  -4  -5  -8   32.80    3.60
   9  -4  -8   32.50    3.60
   5  -9  -8   33.50    3.40
   4   5  -8   31.80    3.40
   3  -9  -8    2.50    1.50
  -3  -6   8    3.60    1.80
   3  -9  -8   -0.20    2.30
  -6  -3  -8    1.10    2.10
   9  -6  -8    0.00    1.90
  -9   6  -8    4.40    1.50
   6   3  -8    2.40    1.90
  -9   3   8   -0.30    1.90
  -9   3  -8    1.60    1.80
   6  -9  -8    3.90    1.60
  -6  -3   8    5.00    2.00
  -3  -6  -8   -0.10    1.70
   3   6  -8    2.00    1.80
  -9   6   8    3.50    2.20
   9  -3  -8    1.80    2.10
  -2  -7   8   17.20    2.30
  -7  -2  -8   17.20    2.70
   2  -9  -8   17.80    2.80
   9  -7  -8   16.60    2.30
  -9   2   8   20.10    3.30
   2  -9  -8   16.10    2.20
   7   2  -8   19.10    2.80
   2  -9   8   19.10    2.10
   2   7  -8   12.40    2.20
  -7  -2   8   18.30    2.50
  -2  -7  -8   16.40    2.30
   9  -2  -8   17.50    2.70
  -9   2  -8   14.40    2.40
  -9   7   8   18.60    3.10
   9  -8  -8   -2.50    1.70
  -9   1   8    3.50    2.40
  -8  -1  -8    2.30    2.30
   1  -9  -8    1.00    1.70
   8   1  -8   -0.80    2.30
  -1  -8   8    2.90    1.90
   1  -9  -8    3.20    2.30
  -9   8   8    0.20    2.70
  -1  -8  -8    3.70    2.00
   9  -1  -8   -1.90    2.30
  -8  -1   8    4.10    2.40
  -9   1  -8    0.30    2.10
   1  -9   8   -0.40    1.80
   0   0   9   -0.10    0.80
   0   0  -9    2.70    0.80
   0   1   9   17.90    1.60
   0  -1  -9   15.40    1.60
   1  -1  -9   14.50    1.60
  -1   0  -9   14.70    1.50
  -1   0   9   12.90    1.50
  -1   1   9   12.70    1.70
   0   1  -9   14.00    1.50
   0  -1   9   12.00    1.50
  -2   1  -9    1.10    0.70
   1   1  -9    0.10    0.70
   2  -1  -9   -0.70    0.70
   1  -2  -9    0.30    0.90
  -1  -1   9    0.60    0.70
  -1   2  -9    2.50    0.90
  -2   1   9    0.30    0.90
  -1  -1  -9    0.60    0.70
  -1   2   9    0.00    1.00
   1  -2   9    0.20    0.90
   2   0  -9 1198.08   59.59
   0   2  -9 1164.68   59.59
   0  -2   9 1184.38   59.59
  -2   2   9 1236.08   59.79
  -2   2  -9 1145.79   59.69
  -2   0  -9 1148.69   59.59
   2  -2   9 1159.68   59.59
  -2   0   9 1185.08   59.59
   2  -2  -9 1126.99   59.69
   0  -2  -9 1128.59   59.69
  -3   2  -9   21.10    1.70
   3  -2  -9   20.10    1.80
  -1   3  -9   21.70    1.60
   1  -3  -9   21.50    2.00
  -2   3   9   18.80    2.10
   2  -3   9   19.50    1.80
  -1  -2   9   19.40    1.70
   2   1  -9   22.80    1.80
  -3   1   9   20.80    1.80
   1  -3   9   21.30    1.80
  -1  -2  -9   24.70    1.80
   2  -3  -9   21.80    2.00
  -2   3  -9   21.30    1.70
  -3   2   9   17.90    1.90
   1   2  -9   20.80    1.70
   3  -1  -9   21.80    1.80
  -2  -1   9   21.60    1.70
  -3   1  -9   20.50    1.70
   0  -3   9   -0.50    0.80
   3   0  -9   -0.40    0.90
   0  -3  -9    0.30    0.90
  -3   3   9    0.40    1.10
  -3   3  -9    0.70    0.90
  -3   0   9   -0.10    0.90
   3  -3  -9    1.80    1.00
   0   3  -9   -0.80    0.70
   2  -4  -9    2.20    1.30
   2   2  -9    1.90    0.80
   2  -4   9    0.60    1.00
  -2   4  -9    1.40    0.70
  -4   2   9    2.90    1.00
  -2  -2   9    0.40    0.90
   4  -2  -9    2.20    1.00
  -3   4   9   15.60    1.90
  -1   4  -9   14.60    1.50
  -1  -3   9   16.70    1.60
   1  -4  -9   16.30    1.90
  -4   1   9   14.10    1.80
   4  -3  -9   17.20    1.70
  -4   3  -9   16.80    1.60
   3   1  -9   12.90    1.70
  -3  -1   9   16.10    1.70
   1  -4   9   12.50    1.60
  -4   3   9   16.50    1.90
   3  -4  -9   12.50    1.70
  -3   4  -9   15.00    1.50
   1   3  -9   14.70    1.60
   4  -1  -9   14.10    1.50
   0   4  -9  492.75   25.10
  -4   0   9  481.95   25.20
   4  -4  -9  504.45   25.30
  -4   4  -9  438.96   25.20
   0  -4  -9  477.95   25.30
   0  -4   9  502.85   25.20
  -4   4   9  503.45   25.50
   4   0  -9  509.75   25.30
   2  -5  -9    6.90    1.50
   5  -3  -9    9.90    1.40
   3   2  -9   11.20    1.40
  -5   2   9    6.60    1.40
  -2   5  -9    9.90    1.20
   3  -5   9    7.30    1.10
  -2  -3   9    7.40    1.30
  -5   3   9    7.10    1.40
   2   3  -9    6.60    1.30
  -3   5  -9    7.40    0.90
   3  -5  -9    9.00    1.60
  -3  -2   9    5.10    1.30
   2  -5   9    7.30    1.30
   5  -2  -9    8.20    1.40
  -4   5   9    0.10    1.40
  -1   5  -9    0.70    0.90
  -5   4  -9    4.00    1.00
  -5   1   9    0.00    1.10
   1  -5  -9    1.50    1.20
   4   1  -9   -0.50    1.00
   5  -4  -9   -1.40    1.00
  -1  -4   9   -1.10    0.90
  -5   4   9   -3.00    1.30
   1   4  -9   -0.40    1.00
   5  -1  -9    1.30    1.10
  -4  -1   9   -0.60    1.00
   4  -5  -9    0.90    1.20
  -5   1  -9    0.20    1.00
   1  -5   9    0.40    1.00
  -5   5   9   -1.00    1.60
   0  -5  -9    2.90    1.30
   5   0  -9    0.40    1.10
  -5   0   9    0.20    1.20
  -5   0  -9    1.30    1.20
   5  -5  -9   -0.30    1.10
   0   5  -9    2.50    1.00
   0  -5   9    2.00    1.00
  -6   3   9    0.10    1.20
   6  -3  -9   -0.30    1.30
  -3  -3   9    0.30    1.20
  -6   3  -9    1.80    1.00
   3   3  -9    1.40    1.10
   3  -6  -9    1.90    1.50
  -2  -4   9  183.58    9.90
   4   2  -9  189.08   10.00
   2  -6  -9  178.88   10.10
   6  -4  -9  192.58   10.00
  -6   4  -9  183.38    9.70
  -2   6  -9  184.28    9.70
  -4  -2  -9  183.08   10.10
  -6   4  -9  181.68    9.80
  -6   2   9  190.58   10.00
  -6   4   9  185.58   10.10
   2  -6   9  178.38    9.80
   2   4  -9  189.88    9.90
   6  -2  -9  196.78   10.00
  -6   2  -9  183.08    9.90
  -4  -2   9  185.08   10.00
   4  -6  -9  171.38   10.00
  -6   5  -9   12.60    1.50
  -5  -1  -9   11.10    1.70
  -6   1   9   12.00    1.80
   6  -5  -9   11.90    1.60
   1  -6  -9   13.20    1.80
  -1   6  -9   12.60    1.60
  -5   6   9   14.20    2.10
  -1  -5   9   10.60    1.50
   5   1  -9    9.20    1.60
  -6   5   9    9.20    2.00
   1   5  -9    8.80    1.40
  -6   1  -9   12.00    1.70
  -5  -1   9    9.90    1.60
   1  -6   9   11.50    1.40
   6  -1  -9   13.50    1.90
   5  -6  -9   11.10    1.60
   0   6  -9   -0.10    1.20
   0  -6   9    1.10    1.20
   6   0  -9    0.50    1.40
   0  -6  -9   -0.20    1.30
  -6   0  -9    1.00    1.30
  -6   0   9    2.50    1.40
   6  -6  -9   -0.10    1.30
  -6   6   9    0.30    1.90
   7  -4  -9    0.70    1.50
  -7   3   9   -0.70    1.40
  -3  -4   9    0.90    1.30
  -4  -3  -9    0.10    1.30
  -7   4  -9    0.70    1.10
   3  -7  -9    3.10    1.80
   4   3  -9   -0.50    1.30
  -7   3  -9    0.00    1.20
   3   4  -9    0.00    1.20
  -7   4   9    0.90    1.50
   7  -3  -9    1.30    1.50
   4  -7  -9    1.20    1.50
  -3  -4  -9    1.80    1.80
  -4  -3   9    1.00    1.30
  -2   7  -9    0.40    0.90
  -7   5  -9    1.40    1.10
  -7   2   9   -0.30    1.50
   5   2  -9   -2.10    1.20
  -2  -5   9    0.00    1.30
  -7   5  -9   -1.10    0.90
  -5  -2  -9    1.80    1.50
   2  -7  -9    1.90    1.60
   7  -5  -9   -0.90    1.40
   5  -7  -9   -0.20    1.50
   2  -7   9   -0.40    1.10
   2   5  -9   -0.10    1.20
  -2  -5  -9   -1.00    1.30
  -7   5   9   -1.30    1.60
  -7   2  -9    0.20    1.40
   7  -2  -9   -1.30    1.50
  -5  -2   9   -1.70    1.60
  -1  -6   9    1.40    1.30
   1  -7  -9    0.90    1.50
   7  -6  -9    2.40    1.50
  -6   7   9   -1.50    1.60
   6   1  -9    1.00    1.60
  -7   1   9   -0.80    1.60
  -6  -1  -9   -0.20    1.60
   7  -1  -9    1.50    1.60
  -6  -1   9    1.30    1.80
  -1  -6  -9    2.00    1.50
   6  -7  -9    1.00    1.40
   1   6  -9   -0.50    1.20
  -7   1  -9    0.80    1.60
  -7   6   9    1.90    2.00
   1  -7   9    0.80    1.30
   0  -7  -9   22.10    2.60
  -7   0   9   20.40    2.60
   7   0  -9   22.60    2.60
  -7   0  -9   22.70    2.50
  -7   7   9   16.80    2.70
   7  -7  -9   19.80    2.10
   0  -7   9   20.40    2.60
   0  -7  -9   21.80    2.40
   0   7  -9   16.80    2.00
  -8   4  -9   -0.80    1.40
  -4  -4   9    0.80    1.60
   8  -4  -9    0.20    1.70
  -8   4   9    0.80    1.80
   4  -8  -9   -1.00    1.80
   4   4  -9    0.40    1.60
  -4  -4  -9   -1.00    1.50
   8  -5  -9    3.40    1.70
  -8   3   9    2.50    1.80
   3  -8  -9    2.90    2.10
  -5  -3  -9    1.60    1.60
  -8   5  -9    0.40    1.30
  -3  -5   9    1.80    1.50
   5   3  -9    1.50    1.50
  -8   3  -9    5.90    1.60
   8  -3  -9    1.40    1.80
  -5  -3   9    4.30    1.80
  -8   5   9    5.20    1.90
   5  -8  -9    3.80    1.80
   3   5  -9    2.30    1.60
  -3  -5  -9    2.40    1.50
   8  -6  -9   45.90    3.80
  -2  -6   9   45.10    3.80
   6   2  -9   44.10    3.90
   2  -8  -9   49.90    4.20
  -6  -2  -9   54.19    4.10
  -8   2   9   54.49    4.30
  -8   2  -9   50.49    3.90
   2  -8   9   45.00    3.50
  -2  -6  -9   48.70    3.90
  -8   6   9   57.69    4.40
   2   6  -9   46.60    3.70
  -6  -2   9   51.49    4.10
   6  -8  -9   53.29    3.70
   8  -2  -9   51.09    4.10
   7   1  -9   -1.40    1.70
   1  -8  -9   -0.70    1.90
   1  -8  -9   -1.00    1.50
   8  -7  -9   -1.80    1.70
  -1  -7   9    0.50    1.60
  -7  -1  -9    0.80    1.90
  -8   1   9   -0.40    1.90
  -8   1  -9    3.20    1.90
  -8   7   9    1.90    2.50
  -7  -1   9   -0.20    1.80
  -1  -7  -9   -0.80    1.60
   1  -8   9   -0.80    1.50
   7  -8  -9    0.30    1.60
   1   7  -9    1.30    1.50
   8  -1  -9   -2.10    1.70
   0  -8   9   15.40    2.20
   8   0  -9   14.20    2.60
  -8   0   9   13.00    2.50
  -8   0  -9   17.50    2.60
  -8   8   9    7.00    2.60
   0  -8  -9   18.50    2.70
   0  -8  -9   17.70    2.20
   8  -8  -9   14.50    2.00
  -4  -5   9    6.10    1.90
  -5  -4  -9    6.80    2.20
   4  -9  -9   12.20    2.50
   5   4  -9    7.50    1.90
  -9   4   9    5.20    2.10
   9  -5  -9    7.00    2.10
  -9   5  -9    6.40    1.80
   5  -9  -9    7.00    2.10
  -9   4  -9   12.50    2.00
  -9   5   9   10.10    2.30
  -5  -4   9    6.50    1.90
  -4  -5  -9    4.40    1.90
   9  -4  -9    6.80    2.30
   4   5  -9    4.50    1.80
  -3  -6   9   -0.40    1.60
  -9   3   9    1.20    2.20
   3  -9  -9   -0.10    2.50
  -9   6  -9    0.70    1.70
   6   3  -9   -1.80    1.70
   9  -6  -9   -1.30    2.00
   3  -9  -9   -0.90    1.60
  -6  -3  -9    0.20    2.00
  -9   6  -9    1.90    1.40
  -6  -3   9    1.60    1.90
  -9   6   9   -2.20    2.20
   9  -3  -9   -1.50    2.00
   3   6  -9   -2.10    1.70
   6  -9  -9    1.10    1.80
  -9   3  -9   -0.20    1.90
  -3  -6  -9    0.30    1.80
   9  -7  -9   -0.20    2.00
  -9   2   9    3.20    2.30
   7   2  -9    0.30    1.90
  -2  -7   9    0.60    1.80
   2  -9  -9    5.20    1.80
   2  -9  -9    2.00    2.40
  -7  -2  -9    7.30    2.20
   2   7  -9    3.70    1.90
   7  -9  -9    1.50    2.10
  -2  -7  -9    2.60    1.80
  -9   7   9   -0.40    2.90
  -9   2  -9    2.50    2.10
   9  -2  -9    1.30    2.30
  -7  -2   9    3.30    2.00
   0   0 -10  179.48    9.80
   0   0  10  187.68    9.90
   1   0 -10 1176.08   60.29
  -1   0 -10 1142.29   60.29
  -1   1 -10 1147.09   60.29
   0   1  10 1166.88   60.29
   1  -1 -10 1177.88   60.29
   0  -1 -10 1122.49   60.29
  -1   1  10 1261.57   60.39
   0   1 -10 1170.08   60.19
   1   0  10 1208.68   60.29
   0  -1  10 1207.88   60.29
   1  -1  10 1183.58   60.29
  -1  -1 -10    8.30    1.10
   2  -1 -10    9.00    1.20
  -2   1  10    9.80    1.40
   1   1 -10    8.00    1.10
  -2   1 -10    9.20    1.20
   1  -2  10    8.20    1.30
  -1   2  10    9.00    1.40
   1  -2 -10    9.30    1.40
  -1   2 -10   11.50    1.30
  -1  -1  10    8.60    1.20
  -2   2  10   28.20    2.50
   2  -2 -10   28.50    2.30
  -2   2 -10   31.00    2.30
  -2   0  10   27.60    2.10
   2   0 -10   30.80    2.20
   2  -2  10   31.40    2.20
   0   2 -10   27.80    2.10
   0  -2  10   26.20    2.10
  -2   0 -10   30.90    2.10
   0  -2 -10   27.10    2.20
  -1  -2  10  567.84   28.90
   2  -3  10  566.14   29.00
  -2  -1 -10  578.44   29.00
   1  -3 -10  546.45   29.10
  -3   2 -10  548.05   28.90
  -1   3 -10  567.34   28.90
  -3   1  10  545.05   29.00
   3  -2 -10  587.84   29.00
  -2   3  10  571.44   29.10
   2   1 -10  575.74   28.90
   3  -1 -10  573.84   29.00
  -2   3 -10  554.54   28.90
  -3   2  10  574.84   29.00
   2  -3 -10  547.75   29.10
  -2  -1  10  557.44   28.90
  -3   1 -10  542.35   28.90
   1  -3  10  568.64   29.00
  -1  -2 -10  538.95   28.90
   1   2 -10  574.64   28.90
   0  -3  10    7.80    1.20
   3   0 -10    9.40    1.20
  -3   3  10    6.40    1.50
  -3   3 -10    9.40    1.40
   0  -3 -10    7.70    1.20
  -3   0  10    9.90    1.30
   0   3 -10    7.40    1.10
   3  -3 -10    8.90    1.40
  -4   2 -10  114.19    6.30
  -4   2  10  114.19    6.40
  -2   4 -10  115.79    6.20
   2  -4  10  115.09    6.40
   4  -2 -10  119.29    6.40
  -2  -2  10  117.19    6.40
   2  -4 -10  109.39    6.60
   2   2 -10  116.79    6.40
  -1  -3  10  675.13   34.80
  -4   3 -10  657.53   34.80
  -3   4  10  704.83   35.10
  -4   1  10  670.53   34.90
  -1   4 -10  703.23   34.80
   1  -4 -10  643.24   35.00
   3   1 -10  706.13   34.90
   4  -3 -10  687.63   34.90
  -3   4 -10  674.63   34.80
  -3  -1  10  689.73   34.90
   1   3 -10  687.13   34.80
   4  -1 -10  705.73   34.90
  -4   3  10  684.53   35.00
   3  -4 -10  634.14   35.00
  -1  -3 -10  671.33   34.90
   1  -4  10  667.13   34.80
  -4   0  10    3.20    1.20
   0  -4  10    3.70    1.10
   0   4 -10    5.20    1.10
   4   0 -10    4.60    1.30
  -4   4  10    5.90    1.70
   4  -4 -10    3.10    1.20
   0  -4 -10    4.20    1.20
   5  -3 -10  549.85   26.80
   3   2 -10  527.65   26.80
  -2   5 -10  545.65   26.60
   2  -5 -10  484.15   26.90
  -5   2  10  511.45   26.80
   3  -5  10  472.75   26.60
  -5   3 -10  521.55   26.70
  -2  -3  10  508.95   26.70
  -5   3  10  511.35   26.80
   5  -2 -10  535.75   26.80
   2  -5  10  523.05   26.70
   3  -5 -10  489.35   26.90
  -3   5 -10  552.94   26.60
  -3  -2  10  504.45   26.70
   2   3 -10  531.95   26.80
   5  -4 -10    3.80    1.30
  -1   5 -10    3.00    1.00
  -4   5  10    2.10    1.60
  -1  -4  10    1.50    1.10
   1  -5 -10    2.80    1.40
   4   1 -10    1.20    1.20
  -5   1  10    3.20    1.40
  -5   4 -10    5.20    1.20
   1   4 -10    1.60    1.00
   1  -5  10    3.00    1.10
   5  -1 -10    1.80    1.20
  -4  -1  10    1.90    1.10
  -4   5 -10    0.80    1.00
   4  -5 -10    1.40    1.40
  -5   4  10    1.60    1.60
   0   5 -10  110.99    6.00
  -5   0 -10  105.19    6.20
  -5   0  10  106.29    6.20
   5   0 -10  113.89    6.30
   0  -5 -10  103.79    6.20
   0  -5  10  107.89    6.10
   5  -5 -10  110.99    6.20
  -5   5  10  112.09    6.60
   3  -6 -10    1.10    1.60
   6  -3 -10   -1.10    1.20
  -6   3  10    0.20    1.50
  -6   3 -10   -0.60    1.10
   3   3 -10   -0.10    1.20
  -3  -3  10    0.50    1.10
  -2   6 -10    0.60    0.90
   6  -4 -10    4.40    1.40
  -6   4 -10    3.90    1.20
  -6   2  10    4.30    1.50
   2  -6 -10    4.70    1.60
  -6   4 -10    3.70    1.10
  -4  -2 -10    2.60    1.50
   4   2 -10    1.70    1.30
  -2  -4  10    3.80    1.30
  -4  -2  10    2.10    1.40
  -6   2 -10    2.80    1.30
   2  -6  10    1.10    1.20
   6  -2 -10    3.00    1.40
  -6   4  10    3.30    1.50
   4  -6 -10    2.20    1.50
   2   4 -10    2.30    1.50
  -6   1  10  206.28   11.10
   5   1 -10  209.18   11.10
   1  -6 -10  193.38   11.10
  -5  -1 -10  204.48   11.10
  -6   5 -10  184.28   10.90
  -1  -5  10  202.78   11.00
   6  -5 -10  209.28   11.00
  -5   6  10  210.88   11.30
  -1   6 -10  209.08   10.80
  -5  -1  10  206.08   11.10
  -6   5  10  218.38   11.40
   1  -6  10  206.58   10.90
   6  -1 -10  211.58   11.10
  -6   1 -10  200.28   11.10
   5  -6 -10  212.88   11.10
   6  -6 -10   37.30    3.20
   0  -6  10   42.70    3.00
  -6   0  10   43.50    3.40
  -6   6  10   38.30    3.90
   6   0 -10   44.50    3.40
  -6   0 -10   35.10    3.30
   0  -6 -10   41.30    3.40
   0   6 -10   45.20    2.90
  -7   3  10   79.29    5.10
   3  -7 -10   79.39    5.40
  -7   4 -10   82.19    4.70
   4   3 -10   82.69    5.00
   7  -4 -10   83.69    5.00
  -3  -4  10   79.69    4.90
  -7   3 -10   78.49    4.80
  -3  -4 -10   80.19    5.10
  -4  -3  10   81.09    5.00
   4  -7 -10   74.39    5.20
  -7   4  10   79.79    5.10
   3   4 -10   81.09    4.90
   7  -3 -10   83.59    5.10
   7  -5 -10    0.70    1.50
  -2  -5  10    1.50    1.40
  -7   2  10    2.10    1.50
  -5  -2 -10    2.70    1.70
   5   2 -10    1.10    1.40
  -7   5 -10    0.70    1.10
  -2   7 -10    1.10    1.00
   2  -7 -10    1.50    1.80
  -7   5 -10    1.80    1.20
   2  -7  10    1.70    1.30
  -7   2 -10    0.40    1.40
   2   5 -10    2.00    1.20
  -5  -2  10    1.80    1.60
  -2  -5 -10    1.70    1.50
  -7   5  10    2.20    1.80
   5  -7 -10    2.50    1.70
   7  -2 -10    1.10    1.70
  -1   7 -10  204.68   10.70
  -1  -6  10  196.48   10.80
   1  -7 -10  198.48   11.10
  -6   7  10  177.18   11.00
  -7   1  10  206.68   11.10
  -6  -1 -10  198.38   11.00
   6   1 -10  204.98   11.00
   7  -6 -10  213.58   10.90
   6  -7 -10  203.28   10.90
  -7   1 -10  189.28   10.90
  -6  -1  10  197.18   11.00
   1  -7  10  203.48   10.70
   1   6 -10  202.38   10.80
   7  -1 -10  202.68   11.10
  -1  -6 -10  196.88   11.00
  -7   6  10  210.28   11.40
   0  -7 -10   93.89    6.00
   0  -7  10  102.59    5.90
   7  -7 -10  101.19    6.00
   0  -7 -10   99.89    6.20
   7   0 -10  104.89    6.20
  -7   0 -10   93.49    6.10
   0   7 -10   96.29    5.80
  -7   0  10   94.19    6.20
  -7   7  10   99.09    6.50
   4   4 -10   22.80    2.80
  -8   4 -10   21.50    2.70
  -8   4  10   26.60    2.80
  -4  -4 -10   23.00    2.60
   4  -8 -10   26.50    3.40
  -4  -4  10   27.30    2.90
   8  -4 -10   26.30    3.20
  -8   5 -10  144.09    8.20
  -3  -5  10  151.38    8.40
  -8   5 -10  149.59    8.10
   5   3 -10  145.89    8.40
  -5  -3 -10  147.69    8.50
   3  -8 -10  144.09    8.80
  -8   3  10  146.19    8.50
   8  -5 -10  149.79    8.40
  -5  -3  10  143.89    8.40
   5  -8 -10  141.29    8.50
  -8   3 -10  153.38    8.40
  -8   5  10  148.79    8.60
   8  -3 -10  155.98    8.60
   3   5 -10  146.29    8.40
  -3  -5 -10  149.19    8.50
  -2  -6  10    7.00    1.80
   6   2 -10    6.20    1.90
   2  -8 -10    7.40    2.30
  -8   2  10    3.60    2.10
   8  -6 -10    5.30    1.90
  -6  -2 -10    6.80    2.00
  -2   8 -10    5.90    1.30
  -8   6  10    6.80    2.40
   2  -8  10    7.90    1.70
   8  -2 -10    7.60    3.10
   6  -8 -10    6.50    1.80
  -6  -2  10    6.20    2.00
  -2  -6 -10    8.50    1.90
  -8   2 -10   11.00    2.00
   2   6 -10    6.40    1.80
   8  -7 -10   -0.70    1.70
   1  -8 -10   -1.80    2.10
  -1  -7  10    0.30    1.60
  -1   8 -10   -0.60    1.40
  -7  -1 -10    2.00    2.00
   7   1 -10   -2.20    1.90
   1  -8 -10   -1.30    1.70
  -8   1  10   -1.00    2.00
   8  -1 -10   -3.90    1.90
   1  -8  10    0.20    1.50
   1   7 -10    0.80    1.60
  -8   7  10   -3.40    2.60
  -7  -1  10    0.20    1.90
   7  -8 -10    1.80    1.80
  -1  -7 -10    1.60    1.70
  -8   1 -10    0.80    1.90
   0  -8 -10    0.10    2.10
   8   0 -10    1.00    2.10
  -8   0  10    3.70    2.50
   0  -8  10    1.10    1.80
   0  -8 -10    0.70    1.90
  -8   8  10   -6.60    2.30
   0   8 -10    1.50    1.60
  -8   0 -10   -0.40    2.00
   8  -8 -10    0.70    1.90
  -4  -5  10   62.39    4.80
  -9   4  10   66.89    5.10
   5   4 -10   66.19    4.90
  -9   5 -10   71.19    4.50
   4  -9 -10   68.99    5.30
  -5  -4 -10   60.29    5.00
   9  -5 -10   67.59    5.00
  -5  -4  10   68.09    4.90
  -9   5  10   65.69    5.10
   5  -9 -10   61.49    4.90
  -4  -5 -10   67.79    4.90
   4   5 -10   67.69    4.80
  -9   4 -10   65.69    4.70
   9  -4 -10   68.79    5.10
  -9   3  10    1.20    2.30
  -6  -3 -10   -2.90    2.20
  -3  -6  10    1.30    1.80
  -9   6 -10    3.00    1.50
  -9   6 -10    1.60    1.80
   9  -6 -10   -2.60    2.10
   3  -9 -10    3.70    2.60
   6   3 -10   -0.80    2.00
   3   6 -10   -1.90    1.90
   6  -9 -10    3.30    1.90
  -9   3 -10   -0.40    1.90
  -9   6  10    1.90    2.50
  -3  -6 -10    1.70    1.80
  -6  -3  10   -0.60    1.90
   9  -7 -10   12.90    2.40
   2  -9 -10   12.50    3.00
  -2  -7  10    8.70    2.20
  -7  -2 -10   12.80    2.70
  -9   2  10   11.20    2.70
   7   2 -10   14.20    2.80
   2  -9 -10    8.60    2.10
   2  -9  10   12.90    2.10
  -2  -7 -10   14.50    2.40
   2   7 -10   13.80    2.30
   7  -9 -10   11.70    2.20
  -7  -2  10   16.80    2.70
  -9   2 -10   16.00    2.50
   9  -2 -10   14.40    2.60
  -9   7  10   12.50    3.30
   0   0  11    2.20    1.20
   0   0 -11    3.80    1.10
  -1   0 -11  739.73   39.10
   1   0 -11  758.82   39.10
   1  -1  11  772.52   39.10
  -1   1  11  796.22   39.20
   0  -1  11  785.02   39.20
   0   1  11  754.52   39.20
   1   0  11  748.33   39.10
  -1   1 -11  764.82   39.20
   1  -1 -11  765.52   39.20
   0  -1 -11  733.23   39.20
  -1   0  11  768.02   39.10
   0   1 -11  749.62   39.10
   1   1 -11   -0.10    0.90
  -1   2 -11   -0.10    0.90
   2  -1 -11   -0.20    1.00
   1  -2 -11   -0.20    1.10
   1  -2  11   -0.10    1.10
  -2   1 -11    0.00    1.00
  -1  -1 -11   -0.10    0.90
  -1   2  11   -1.20    1.00
  -2   1  11   -0.40    1.00
  -1  -1  11    0.50    0.90
  -2   0 -11   37.00    2.50
  -2   0  11   34.00    2.40
   2  -2  11   30.00    2.40
  -2   2 -11   42.00    2.60
   0   2 -11   32.40    2.40
   2   0 -11   31.90    2.40
   2  -2 -11   32.80    2.60
   0  -2  11   34.10    2.50
   0  -2 -11   34.80    2.60
  -2   2  11   29.70    2.70
  -3   2 -11  386.66   20.40
   2   1 -11  405.36   20.40
  -1  -2  11  392.26   20.40
   1  -3 -11  385.66   20.60
   3  -2 -11  411.16   20.50
   2  -3  11  401.56   20.50
  -2  -1 -11  388.16   20.40
  -3   1  11  377.36   20.40
  -1   3 -11  396.56   20.40
  -2   3  11  411.26   20.60
  -1  -2 -11  367.46   20.40
   1   2 -11  409.36   20.40
  -2  -1  11  399.16   20.40
  -3   1 -11  372.66   20.40
  -2   3 -11  370.36   20.40
   3  -1 -11  404.16   20.50
   1  -3  11  416.56   20.50
  -3   2  11  393.66   20.50
   2  -3 -11  387.76   20.60
  -3   3 -11   12.00    1.60
   3   0 -11   10.00    1.50
   0   3 -11   13.10    1.40
  -3   0 -11   10.50    1.30
   0  -3 -11   11.80    1.60
  -3   0  11    9.40    1.40
  -3   3  11   10.20    1.90
   3  -3 -11   11.20    1.60
   0  -3  11   11.10    1.50
   4  -2 -11    4.80    1.40
  -4   2  11    2.50    1.30
   2  -4 -11    1.20    1.40
   2  -4  11    4.30    1.40
  -2   4 -11    3.60    1.10
  -4   2 -11    4.30    1.10
  -4   1  11  440.06   22.90
  -1   4 -11  457.35   22.70
  -3   4  11  470.65   23.10
  -4   3 -11  423.26   22.80
  -1  -3  11  432.96   22.80
   4  -3 -11  445.96   22.90
   1  -4 -11  410.96   22.90
   3   1 -11  453.25   22.80
   4  -1 -11  460.05   22.90
   3  -4 -11  426.66   23.00
  -3  -1  11  448.76   22.80
   1   3 -11  441.96   22.80
  -4   3  11  433.56   23.00
   1  -4  11  429.96   22.80
  -3   4 -11  431.46   22.80
  -1  -3 -11  439.86   22.90
   0  -4 -11   41.80    3.00
   0   4 -11   42.50    2.80
   0  -4  11   39.60    2.90
   4  -4 -11   43.70    3.20
  -4   0  11   41.80    3.00
   4   0 -11   42.10    3.00
  -4   4 -11   40.90    3.00
  -4   4  11   42.50    3.50
  -5   3 -11  292.27   16.10
  -2  -3  11  310.47   16.10
   5  -3 -11  321.37   16.20
  -5   2  11  309.37   16.20
   3   2 -11  309.67   16.20
   3  -5  11  289.87   16.00
   2  -5 -11  289.97   16.30
  -2   5 -11  324.17   16.00
  -3   5 -11  316.57   16.00
   3  -5 -11  299.47   16.30
  -5   3  11  302.07   16.20
  -3  -2  11  305.57   16.20
   2  -5  11  318.67   16.20
   2   3 -11  307.07   16.10
   5  -2 -11  321.77   16.20
  -1   5 -11    4.10    1.10
  -5   4 -11    5.50    1.30
  -1  -4  11    3.50    1.20
   4   1 -11    3.80    1.30
   1  -5 -11    3.30    1.40
   5  -4 -11    2.80    1.50
  -4   5  11    2.50    1.80
  -5   1  11    3.70    1.50
  -4   5 -11    3.40    1.20
  -5   4  11    4.00    1.70
   1  -5  11    3.00    1.20
  -4  -1  11    2.60    1.30
   5  -1 -11    4.60    1.30
   4  -5 -11    5.10    1.60
  -1  -4 -11    6.30    1.50
   1   4 -11    5.20    1.20
   0  -5 -11   77.69    4.80
   0   5 -11   77.49    4.60
  -5   5 -11   68.89    4.60
   5  -5 -11   80.99    4.90
   5   0 -11   77.79    4.80
  -5   0  11   82.89    4.90
  -5   5  11   85.69    5.40
   0  -5  11   75.49    4.60
  -3   6 -11    0.40    0.90
  -3  -3  11   -2.50    1.20
   3  -6  11    0.00    1.30
  -6   3  11    1.00    1.50
   3  -6 -11    0.60    1.60
  -6   3 -11   -0.20    1.10
   3   3 -11    0.10    1.30
   6  -3 -11   -1.50    1.30
  -6   4 -11   17.60    2.10
  -6   4 -11   24.60    2.30
   6  -4 -11   23.60    2.60
   4   2 -11   22.80    2.80
  -2  -4  11   26.10    2.40
  -2   6 -11   25.00    2.00
  -6   2  11   22.10    2.60
   2  -6 -11   25.60    2.90
  -4  -2  11   24.60    2.60
   2   4 -11   23.30    2.30
  -6   4  11   25.20    2.80
   2  -6  11   22.10    2.40
   6  -2 -11   23.40    2.60
   4  -6 -11   23.20    2.40
  -6   2 -11   22.10    2.40
  -5  -1 -11  138.79    8.00
  -6   1  11  142.39    8.00
  -5   6  11  151.38    8.30
   6  -5 -11  147.89    8.00
   5   1 -11  128.89    9.00
   1  -6 -11  141.89    8.10
  -1  -5  11  140.89    7.90
  -6   5 -11  135.09    7.90
  -1   6 -11  145.39    7.70
  -6   5 -11  137.89    7.60
   6  -1 -11  143.59    8.00
   1   5 -11  145.59    7.90
   5  -6 -11  140.89    8.10
  -1  -5 -11  141.79    8.10
  -6   5  11  148.89    8.40
  -6   1 -11  142.79    8.00
   1  -6  11  140.79    7.80
  -5  -1  11  144.99    8.00
  -6   6  11    0.60    2.30
   6   0 -11    3.50    1.90
   6  -6 -11    5.40    1.70
  -6   0 -11    2.60    1.80
   0  -6 -11    3.70    1.60
  -6   0  11    6.10    1.70
   0   6 -11    2.90    1.40
   0  -6  11    3.80    2.40
   7  -4 -11   59.29    4.20
   3  -7 -11   61.49    4.60
  -7   4 -11   63.69    4.00
  -4  -3 -11   56.99    4.20
  -3  -4  11   59.89    4.10
   4   3 -11   56.89    4.00
  -7   4 -11   57.39    3.80
  -7   3  11   61.89    4.30
  -7   3 -11   60.99    4.00
   4  -7 -11   53.89    4.40
  -4  -3  11   59.89    4.20
   7  -3 -11   60.39    4.20
  -7   4  11   61.79    4.40
   3   4 -11   59.69    4.00
  -3  -4 -11   57.79    4.30
   5   2 -11    3.90    1.80
  -2  -5  11    4.00    1.50
  -2   7 -11    2.60    1.20
   7  -5 -11    5.60    1.70
   2  -7 -11    7.00    2.00
  -7   2  11    5.00    1.80
  -7   5 -11    5.20    1.50
  -7   5 -11    2.70    1.20
   7  -2 -11    3.00    1.70
   5  -7 -11    3.20    1.90
   2   5 -11    3.70    1.60
  -7   5  11    3.80    2.00
   2  -7  11    2.90    1.50
  -7   2 -11    4.90    1.70
  -5  -2  11    4.30    1.60
  -6   7  11  113.29    7.30
   6   1 -11  122.79    7.20
  -1   7 -11  122.59    6.80
  -6  -1 -11  120.49    7.30
   1  -7 -11  123.69    7.30
  -1  -6  11  128.39    7.10
   7  -6 -11  125.99    7.10
  -7   1  11  131.79    7.40
  -1  -6 -11  122.69    7.30
  -7   1 -11  117.29    7.20
   1  -7  11  108.49    7.30
   6  -7 -11  124.09    7.20
   1   6 -11  122.69    7.00
  -7   6  11  130.09    7.80
   7  -1 -11  116.29    7.30
  -6  -1  11  120.69    7.30
  -7   0 -11   63.49    4.50
   7  -7 -11   60.99    4.40
   7   0 -11   54.59    4.50
  -7   7  11   63.29    5.10
   0  -7 -11   58.59    4.50
  -7   0  11   64.29    4.80
   0   7 -11   60.09    4.10
   0  -7  11   60.29    4.20
   4  -8 -11    6.20    2.20
   4   4 -11    3.20    1.60
  -8   4  11    2.80    1.90
   8  -4 -11    1.70    1.90
  -4  -4  11    2.40    1.60
  -4  -4 -11    1.40    2.00
  -8   4 -11    0.40    1.60
  -8   5 -11   89.99    5.20
  -8   5 -11   88.29    5.40
   5   3 -11   82.89    5.60
  -8   3  11   84.69    5.80
  -5  -3 -11   90.39    5.90
   8  -5 -11   89.79    5.70
   3  -8 -11   87.09    6.30
  -3  -5  11   90.99    5.60
   5  -8 -11   77.29    5.80
  -8   5  11   88.69    5.90
   8  -3 -11   92.09    5.80
  -3  -5 -11   85.59    5.80
   3   5 -11   87.09    5.50
  -5  -3  11   95.29    5.70
  -8   3 -11   87.39    5.60
   8  -6 -11   21.30    2.60
  -2  -6  11   20.40    2.40
  -8   2  11   19.90    2.60
  -6  -2 -11   20.30    2.70
   6   2 -11   19.20    2.70
   2  -8 -11   25.80    3.20
  -8   6 -11   25.80    2.80
  -2   8 -11   22.30    2.30
   6  -8 -11   20.60    2.50
  -6  -2  11   24.70    2.80
   8  -2 -11   23.90    2.80
  -8   6  11   23.00    3.10
  -2  -6 -11   20.20    2.50
   2  -8  11   20.10    2.70
   2   6 -11   25.30    2.60
  -8   2 -11   24.30    2.60
   8  -7 -11    0.40    1.90
  -7  -1 -11   -0.20    2.00
   1  -8 -11    0.90    2.20
   7   1 -11   -0.40    2.00
  -1  -7  11   -0.60    1.80
  -1   8 -11   -0.10    1.40
  -8   1  11    2.20    2.20
   1  -8  11    1.70    1.70
  -1  -7 -11   -1.70    1.70
   1   7 -11    0.60    1.60
  -8   1 -11    4.30    2.00
   8  -1 -11    1.40    2.00
  -1  -7 -11   -1.30    2.10
  -8   7  11   -1.40    3.00
  -7  -1  11    1.40    2.00
   7  -8 -11   -0.10    1.90
   8  -8 -11    5.20    2.10
   0  -8 -11    5.20    2.50
  -8   0 -11    8.20    2.40
   0   8 -11    4.60    1.90
   0  -8  11    7.80    2.00
  -8   0  11   10.20    2.60
  -8   8  11   -0.30    2.70
   8   0 -11    6.80    2.50
   0  -8 -11    6.40    2.10
   9  -5 -11   44.70    4.30
   4  -9 -11   49.70    4.60
  -9   5 -11   44.20    3.60
   5   4 -11   41.20    4.00
  -4  -5  11   41.20    4.00
  -5  -4 -11   37.80    4.10
  -9   4  11   45.60    4.40
  -4  -5 -11   34.40    4.00
   9  -4 -11   47.50    4.30
  -9   4 -11   48.40    3.80
   4   5 -11   39.10    3.90
  -9   5  11   38.70    4.30
  -5  -4  11   41.90    4.10
   5  -9 -11   39.10    4.30
   6   3 -11    0.80    2.30
  -9   6 -11    2.80    1.90
  -6  -3 -11    0.70    2.30
  -9   6 -11    3.70    1.60
   9  -6 -11   -1.80    2.30
   3  -9 -11    4.30    2.80
  -3  -6  11    3.10    2.00
  -9   3  11   -0.40    2.20
  -6  -3  11    2.30    2.10
   3   6 -11    0.00    1.80
   9  -3 -11    2.40    2.30
  -9   3 -11   -0.40    2.00
   6  -9 -11   -0.10    2.00
  -3  -6 -11    1.50    2.00
  -9   6  11    1.80    2.60
  -2  -7  11    9.90    2.30
   9  -7 -11    9.60    2.50
   2  -9 -11    9.70    2.10
  -7  -2 -11    9.60    2.60
   2  -9 -11    8.70    3.00
   7   2 -11   11.50    2.80
  -9   2  11    9.00    2.70
  -7  -2  11   10.60    2.60
   2   7 -11    8.40    2.20
   9  -2 -11    9.40    2.70
  -2  -7 -11    6.80    2.10
   7  -9 -11    7.20    2.20
   2  -9  11    8.90    2.20
  -9   7  11   13.30    3.40
  -9   2 -11    8.80    2.50
   0   0  12 6303.87  320.57
   1  -1  12    4.30    1.20
  -1   0  12    4.80    1.40
  -1   1 -12    5.70    1.40
   0  -1 -12    4.80    1.40
   1   0  12    7.00    1.40
   0   1  12    4.10    1.40
  -1   1  12    5.30    1.40
   0   1 -12    5.50    1.20
   0  -1  12    3.30    1.20
   1   0 -12    5.60    1.20
   1  -1 -12    6.50    1.20
  -1   2  12  289.37   14.80
  -2   1 -12  271.87   14.60
  -1  -1  12  269.57   14.60
  -2   1  12  284.27   14.70
  -1  -1 -12  263.27   14.60
   2  -1 -12  279.87   14.70
   1  -2  12  284.47   14.70
  -1   2 -12  271.67   14.60
   1  -2 -12  281.47   14.70
   1   1 -12  278.47   14.60
  -2   2  12   28.50    2.70
  -2   0  12   26.60    2.30
  -2   2 -12   28.60    2.40
   0  -2 -12   29.80    2.50
   0   2 -12   26.70    2.20
   2  -2  12   26.30    2.30
   0  -2  12   26.30    2.30
   2   0 -12   27.10    2.30
   2  -2 -12   28.40    2.50
  -1   3 -12    4.50    1.10
   1  -3 -12    5.20    1.30
  -3   1  12    3.70    1.20
  -1  -2  12    3.20    1.10
  -2   3  12    6.50    1.70
   2  -3  12    3.50    1.30
   2   1 -12    5.20    1.20
  -3   2 -12    7.20    1.40
   3  -2 -12    5.90    1.50
  -2  -1 -12    5.20    1.20
  -2   3 -12    7.70    1.30
   2  -3 -12    5.80    1.50
   1  -3  12    3.30    1.30
  -1  -2 -12    6.10    1.20
  -2  -1  12    3.50    1.10
  -3   2  12    3.50    1.30
   3  -1 -12    5.20    1.30
  -3   1 -12    5.40    1.20
   1   2 -12    4.30    1.10
  -3   0 -12  367.96   19.60
  -3   0  12  396.36   19.70
   0  -3  12  372.06   19.60
  -3   3 -12  363.96   19.70
   3   0 -12  388.86   19.70
   0   3 -12  375.56   19.60
   3  -3 -12  366.86   19.80
  -3   3  12  404.86   20.00
   0  -3 -12  363.96   19.70
  -2  -2  12 2915.71  150.88
   2  -4 -12 2887.81  150.98
   2   2 -12 2991.10  150.88
  -2   4 -12 2960.60  150.78
   2  -4  12 3168.48  150.98
  -4   2 -12 2829.12  150.78
  -2  -2 -12 2973.10  150.88
   4  -2 -12 3032.10  150.98
  -4   2  12 2909.61  150.98
  -3   4  12    2.90    1.60
   1  -4 -12    0.80    1.50
  -1   4 -12    2.00    1.00
  -4   3 -12    3.70    1.30
  -1  -3  12   -0.90    1.10
   4  -3 -12    2.00    1.40
   3   1 -12    2.90    1.30
  -4   3  12   -0.80    1.50
   3  -4 -12    4.30    1.40
  -1  -3 -12    1.70    1.10
   1   3 -12    3.10    1.10
  -4   1 -12    2.90    1.20
  -3  -1  12    1.20    1.30
   1  -4  12    1.00    1.20
  -4   4 -12   25.50    2.40
   4   0 -12   25.80    2.40
  -4   4  12   24.00    3.00
   0  -4 -12   22.10    2.50
   0   4 -12   25.20    2.20
   0  -4  12   24.30    2.30
  -4   0  12   24.20    2.40
   4  -4 -12   28.00    2.70
   3   2 -12   -0.10    1.30
  -5   3 -12    2.30    1.30
  -5   2  12    1.40    1.50
   5  -3 -12    0.80    1.50
  -2  -3  12    0.70    1.30
  -2   5 -12    1.40    1.00
   2  -5 -12    4.60    1.60
   3  -5  12   -0.10    1.20
   3  -5 -12    4.50    1.60
  -5   3  12    0.70    1.40
   2  -5  12    0.60    1.40
  -3  -2  12    1.40    1.20
  -3   5 -12    0.60    1.10
  -5   2 -12    2.20    1.30
   2   3 -12    0.40    1.20
  -2  -3 -12    3.60    1.30
   5  -2 -12    1.50    1.40
  -5   1  12  166.58    9.20
   4   1 -12  172.78    9.20
   5  -4 -12  172.98    9.30
  -1   5 -12  173.88    9.00
  -5   4 -12  155.88    9.10
  -4   5  12  171.98    9.50
   1  -5 -12  156.98    9.30
  -1  -4  12  168.18    9.10
  -4  -1  12  169.38    9.20
  -1  -4 -12  172.68    9.30
  -4   5 -12  168.58    9.00
   1   4 -12  171.48    9.10
   4  -5 -12  153.28    9.30
   1  -5  12  164.58    9.10
  -5   4  12  173.28    9.50
   5  -1 -12  170.88    9.20
   0  -5  12    2.30    1.40
   0  -5 -12    3.90    1.50
  -5   5 -12    2.60    1.40
   5  -5 -12    4.70    1.60
  -5   0  12    4.60    1.70
  -5   5  12    3.60    2.10
   0   5 -12    4.10    1.30
   5   0 -12    4.30    1.70
   3  -6 -12   82.79    5.10
  -3   6 -12   82.59    4.30
   3  -6  12   69.39    4.60
  -6   3  12   73.19    4.90
   3   3 -12   72.69    4.60
  -6   3 -12   61.99    5.70
   6  -3 -12   75.79    4.80
  -3  -3  12   73.39    5.00
   6  -4 -12   13.20    2.00
   2  -6 -12   13.60    2.20
  -2   6 -12   14.40    1.80
  -6   2  12   15.40    2.10
  -6   4 -12   16.20    1.80
   4   2 -12   16.40    2.10
  -4  -2  12   14.00    1.90
  -6   4  12   16.80    2.30
   6  -2 -12   13.10    1.90
   4  -6 -12   16.70    2.20
   2   4 -12   16.80    2.00
   2  -6  12   14.40    1.90
  -6   5 -12    3.70    1.50
  -5   6  12   -4.40    1.90
  -1   6 -12    0.00    1.20
   6  -5 -12    3.10    1.60
  -1  -5  12    3.00    1.50
   5   1 -12    2.70    1.60
   1  -6 -12    2.50    1.70
  -6   1  12   -0.10    1.50
  -5  -1 -12   -1.10    1.60
  -6   1 -12   -0.10    1.50
  -5  -1  12    2.20    1.70
  -1  -5 -12    2.10    1.70
   1   5 -12    0.70    1.20
  -6   5  12    3.10    2.20
   5  -6 -12    0.70    1.70
   1  -6  12   -1.00    1.30
   6  -1 -12    1.60    1.50
   0  -6 -12  787.72   43.90
   0   6 -12  851.81   43.80
  -6   0  12  901.31   44.10
  -6   6  12  912.41   44.20
   6  -6 -12  860.91   43.90
   0  -6  12  830.32   43.80
   6   0 -12  853.71   44.00
  -6   0 -12  824.32   43.90
   3  -7 -12    4.40    2.10
   4   3 -12   -0.70    1.40
   7  -4 -12    4.40    1.90
  -3   7 -12    1.90    1.00
  -7   3  12    1.80    1.70
  -7   4 -12    2.20    1.40
  -7   4 -12    4.00    1.60
  -3  -4  12    2.10    1.60
  -4  -3 -12   -0.50    1.60
   4  -7 -12   -0.70    1.90
  -4  -3  12    3.40    1.70
   7  -3 -12   -0.30    1.70
   3  -7  12    1.90    1.60
   3   4 -12   -0.10    1.30
  -7   4  12    0.00    1.70
  -7   3 -12    2.40    1.50
   5   2 -12  197.68   10.70
   2  -7 -12  190.48   11.00
  -5  -2 -12  195.78   10.80
  -2   7 -12  193.08   10.50
   7  -5 -12  200.88   10.70
  -2  -5  12  198.38   10.60
  -7   5 -12  173.38   10.60
  -7   2  12  205.08   10.80
  -7   5 -12  190.58   10.30
   5  -7 -12  188.58   10.80
  -5  -2  12  195.68   10.70
  -7   2 -12  190.38   10.60
   2   5 -12  197.28   10.60
   7  -2 -12  199.48   10.80
   2  -7  12  185.28   10.50
  -7   5  12  203.28   11.00
   1  -7 -12    2.40    2.00
  -7   6 -12    5.00    1.60
  -1  -6  12    0.90    1.60
   6   1 -12   -2.40    1.60
  -6   7  12   -2.00    2.10
   7  -6 -12   -0.30    1.80
  -1   7 -12    0.90    1.40
  -7   1  12    4.20    3.00
  -7   6 -12   -0.30    1.00
   1  -7  12   -0.30    1.50
  -6  -1  12    0.90    1.80
   6  -7 -12    2.70    1.90
  -1  -6 -12   -1.30    1.70
  -7   6  12   -0.90    2.50
  -7   1 -12    1.30    1.80
   1   6 -12   -1.00    1.40
   7  -1 -12   -0.10    1.80
   7   0 -12    1.50    1.90
   0  -7  12   -0.60    1.60
   0  -7 -12   -1.20    2.00
  -7   7  12    0.20    2.60
  -7   0 -12    1.20    2.00
   0   7 -12    0.00    1.60
   7  -7 -12   -0.10    1.90
  -7   0  12    0.40    2.00
  -8   4  12  444.06   23.50
   8  -4 -12  464.65   23.50
  -8   4 -12  448.56   23.20
  -4  -4  12  438.16   23.40
   4   4 -12  443.26   23.40
   4  -8 -12  443.76   23.60
  -4  -4 -12  440.16   23.50
  -8   5 -12    1.80    1.40
  -8   5 -12    0.70    1.70
   3  -8 -12    3.10    2.50
  -8   3  12    2.30    2.10
   8  -5 -12    1.50    2.00
   5   3 -12   -0.20    1.90
  -3  -5  12    0.40    1.70
  -5  -3 -12    2.40    2.10
  -8   3 -12    1.60    1.80
   8  -3 -12    2.00    2.10
   3   5 -12    0.80    1.60
   5  -8 -12    2.20    2.20
  -8   5  12   -1.50    2.10
  -5  -3  12    0.10    1.80
  -3  -5 -12    0.80    2.00
  -8   2  12   10.20    4.00
  -2  -6  12    8.70    2.00
   6   2 -12    8.80    2.10
  -6  -2 -12    7.60    2.20
  -2   8 -12    9.30    1.60
   8  -6 -12    4.20    2.20
   2  -8 -12   12.40    2.70
  -8   6 -12    9.80    2.10
  -8   6  12   11.40    2.90
  -8   2 -12   10.50    2.10
  -2  -6 -12    6.80    2.00
   2   6 -12    7.20    2.00
   6  -8 -12   10.00    2.30
   2  -8  12    9.50    1.90
   8  -2 -12    9.20    2.30
  -6  -2  12   11.10    2.50
  -1  -7  12   29.00    3.40
   7   1 -12   26.60    3.10
  -1   8 -12   23.80    2.90
  -7  -1 -12   31.00    3.80
  -8   1  12   24.50    3.00
   8  -7 -12   26.60    3.50
   1  -8 -12   33.10    3.50
   1   7 -12   23.30    2.70
   8  -1 -12   25.30    3.00
  -1  -7 -12   30.20    3.80
   7  -8 -12   26.60    3.50
  -1  -7 -12   25.70    3.40
  -8   7  12   27.00    3.90
  -8   1 -12   25.20    3.00
   1  -8  12   27.60    3.20
  -7  -1  12   29.80    3.80
   0   8 -12    2.60    1.90
  -8   8  12   -3.10    2.80
   0  -8 -12   -0.80    1.90
   0  -8  12    1.70    2.00
   8  -8 -12    3.60    2.30
  -8   0 -12    1.30    2.40
  -8   0  12    1.60    2.50
   8   0 -12    3.00    2.40
   0  -8 -12   -0.90    2.60
  -9   5 -12   -0.90    1.80
  -4  -5  12    1.40    1.90
  -9   5 -12    0.10    2.10
  -9   4  12   -0.90    2.40
   9  -5 -12   -2.50    2.20
   4  -9 -12    2.90    2.60
  -5  -4 -12    2.30    2.00
   5   4 -12   -0.40    1.90
   9  -4 -12   -4.30    2.30
  -9   4 -12    4.20    2.00
   4   5 -12   -1.40    2.00
  -9   5  12    3.60    2.40
   5  -9 -12    0.90    2.50
  -5  -4  12   -1.90    2.20
  -4  -5 -12   -1.40    1.80
   3  -9 -12   49.99    5.20
  -6  -3 -12   44.20    4.40
  -3  -6  12   47.20    4.20
   9  -6 -12   43.60    4.30
  -9   3  12   42.10    4.50
   6   3 -12   36.80    4.20
  -9   6 -12   33.40    3.90
  -9   6 -12   42.20    3.40
  -9   6  12   40.30    5.00
   6  -9 -12   42.10    4.20
   3   6 -12   43.40    4.00
   9  -3 -12   41.80    4.50
  -6  -3  12   44.20    4.30
  -9   3 -12   45.60    4.20
  -3  -6 -12   38.30    4.10
   0   0  13    4.90    1.50
   0   0 -13    5.80    1.50
   0  -1 -13  177.28   10.20
   0   1 -13  180.88   10.20
  -1   0  13  201.18   10.30
   1   0 -13  187.98   10.20
  -1   0 -13  179.58   10.20
  -1   1 -13  186.58   10.20
  -1   1  13  194.18   10.30
   0   1  13  191.58   10.30
   0  -1  13  186.18   10.20
   1  -1  13  195.68   10.20
   1  -1 -13  185.78   10.20
   2  -1 -13    0.00    1.10
  -1   2  13    0.20    1.40
  -1   2 -13    3.90    1.20
   1   1 -13   -1.40    1.00
   1  -2  13   -1.70    1.20
  -2   1 -13    0.40    1.20
  -2   1  13    3.30    1.40
  -1  -1 -13    1.20    1.10
   1  -2 -13    2.50    1.40
  -1  -1  13   -1.20    1.10
  -2   0 -13   15.60    2.00
   2   0 -13   19.80    2.10
  -2   2 -13   19.90    2.20
   0   2 -13   16.40    1.70
   2  -2 -13   19.50    2.20
   2  -2  13   15.60    2.10
  -2   0  13   14.50    1.80
   0  -2 -13   18.40    2.20
   0  -2  13   13.90    1.80
  -2   2  13   17.50    2.10
  -3   2 -13  174.28    9.70
   3  -2 -13  176.38    9.80
   2  -3  13  182.08    9.70
  -2  -1 -13  176.88    9.60
   1  -3 -13  179.58    9.80
  -1  -2  13  165.18    9.60
  -1   3 -13  182.98    9.60
  -2   3  13  189.08    9.90
   2   1 -13  178.88    9.60
   3  -1 -13  179.58    9.70
  -2   3 -13  175.08    9.60
  -3   1 -13  173.28    9.60
   2  -3 -13  178.48    9.80
  -1  -2 -13  172.28    9.70
  -3   2  13  173.08    9.80
   1  -3  13  185.98    9.70
   1   2 -13  175.08    9.60
   0  -3 -13   35.60    3.00
  -3   0 -13   37.70    2.80
   3  -3 -13   30.40    3.10
   0   3 -13   37.40    2.70
  -3   3  13   30.40    3.30
  -3   3 -13   36.90    2.90
   3   0 -13   36.00    2.80
  -3   0  13   33.00    2.80
   0  -3  13   34.00    2.80
  -2  -2 -13    2.10    1.20
   4  -2 -13    4.50    1.50
   2  -4  13    1.60    1.60
  -2  -2  13    0.80    1.30
  -4   2  13    2.50    1.60
  -2   4 -13    3.40    1.20
   2  -4 -13    4.70    1.60
  -3   4  13  115.59    6.40
  -3  -1 -13  102.09    6.00
  -4   1  13  100.59    6.00
  -4   3 -13   97.29    6.00
  -1   4 -13  109.09    5.90
   3  -4  13   94.49    5.90
   3   1 -13   99.29    6.00
   1  -4 -13  105.09    6.30
  -1  -3  13  103.69    6.00
   4  -3 -13  113.19    6.20
   1   3 -13  110.39    6.00
  -1  -3 -13   99.79    6.00
  -4   3  13  101.89    6.30
   1  -4  13  105.99    6.00
   3  -4 -13  104.79    6.20
  -3   4 -13   93.29    5.90
  -4   1 -13  105.39    6.00
  -3  -1  13  100.19    6.00
   4  -1 -13  104.79    6.10
  -4   4  13   13.90    2.30
  -4   0  13   11.00    1.70
   0   4 -13   13.70    1.70
   0  -4 -13   16.50    2.20
   4   0 -13   12.20    1.80
   4  -4 -13   15.70    2.20
  -4   4 -13   14.80    1.80
   0  -4  13   13.20    1.70
  -4   0 -13   12.10    1.80
  -5   3 -13   49.30    3.40
  -5   2  13   44.00    3.50
   5  -3 -13   48.10    3.60
  -2   5 -13   44.20    3.10
   3   2 -13   48.30    3.40
   3  -5  13   40.50    3.30
  -2  -3  13   46.90    3.30
   2  -5 -13   48.40    3.80
  -3   5 -13   46.40    3.10
  -3  -2  13   46.90    3.40
  -5   2 -13   45.00    3.30
   5  -2 -13   45.20    3.50
  -2  -3 -13   48.60    3.50
   2   3 -13   45.60    3.40
   2  -5  13   45.90    3.50
   3  -5 -13   52.19    3.80
  -5   3  13   43.70    3.70
   4   1 -13   18.60    2.10
  -1   5 -13   18.30    2.10
  -4   5  13   21.00    2.80
  -5   4 -13   21.20    2.20
  -5   1  13   22.60    2.50
  -1  -4  13   19.40    2.40
   5  -4 -13   22.50    2.30
   1  -5 -13   24.20    2.60
   1  -5  13   18.10    2.40
  -5   4  13   17.70    2.50
  -1  -4 -13   22.30    2.60
   5  -1 -13   19.50    2.50
  -4   5 -13   18.70    2.30
  -4  -1  13   18.60    2.10
   4  -5 -13   21.30    2.40
  -5   1 -13   18.90    2.60
  -5   5 -13   70.69    4.40
   0   5 -13   61.79    4.60
  -5   5  13   72.99    5.20
   0  -5  13   67.19    4.40
   5   0 -13   68.79    4.60
   0  -5 -13   69.79    4.70
   5  -5 -13   72.29    4.70
  -5   0  13   67.79    4.60
   3  -6  13   -2.00    1.50
  -3  -3  13   -0.30    1.30
   3   3 -13   -1.80    1.20
   6  -3 -13   -0.60    1.50
  -6   3  13    0.20    1.60
  -6   3 -13   -0.60    1.40
   3  -6 -13   -0.40    1.80
  -3   6 -13   -1.00    1.10
   6  -4 -13   13.10    2.10
   2  -6 -13   13.40    2.30
  -2  -4  13   15.30    2.00
  -6   2  13   15.10    2.30
  -6   4 -13   12.50    2.90
  -2   6 -13   15.80    1.70
   4   2 -13   15.00    2.10
   4  -6 -13   15.00    2.20
  -2  -4 -13   16.10    2.10
   2   4 -13   14.90    1.90
  -4  -2  13   14.90    2.10
   6  -2 -13   11.90    2.00
  -4   6 -13   14.30    1.60
   2  -6  13   12.60    2.10
  -6   4  13   16.80    2.60
  -6   5 -13   59.69    4.30
   5   1 -13   60.59    4.30
   6  -5 -13   64.59    4.40
   1  -6 -13   56.89    4.50
  -1  -5  13   62.59    4.10
  -6   1  13   63.19    4.40
  -1   6 -13   61.59    4.00
  -5   6  13   54.79    4.80
  -1  -5 -13   61.89    4.40
  -5  -1  13   62.29    4.40
  -6   1 -13   52.19    4.30
   6  -1 -13   65.39    4.40
   1   5 -13   62.99    4.10
   5  -6 -13   55.99    4.50
   1  -6  13   57.49    4.20
  -6   5  13   65.59    5.00
  -6   0 -13    4.10    2.10
  -6   0  13    5.80    2.00
  -6   6 -13    8.80    1.60
  -6   6  13   11.10    2.80
   0  -6  13    1.40    1.70
   6   0 -13    5.90    2.10
   0   6 -13    4.40    1.60
   6  -6 -13    9.10    2.10
   0  -6 -13    6.60    2.00
  -7   4 -13   38.30    3.50
   4   3 -13   37.60    3.50
   3  -7 -13   43.50    4.30
  -3  -4  13   42.00    3.60
  -7   3  13   40.60    3.90
   7  -4 -13   41.90    3.80
  -3   7 -13   44.40    3.00
  -7   4 -13   46.30    3.40
  -4  -3  13   43.90    3.80
  -7   3 -13   43.80    3.50
  -7   3 -13   48.60    3.70
   4  -7 -13   50.49    4.10
   3  -7  13   39.40    3.60
   3   4 -13   39.00    3.50
  -7   4  13   39.90    4.00
   7  -3 -13   43.90    3.80
  -2  -5  13   19.10    2.30
  -5  -2 -13   18.60    2.60
   7  -5 -13   14.50    2.50
  -7   5 -13   18.00    2.30
  -7   5 -13   23.60    2.90
   5   2 -13   15.80    2.20
  -2   7 -13   20.80    2.20
   2  -7 -13   21.30    2.90
  -7   2  13   17.90    2.50
   7  -2 -13   19.40    2.60
  -7   2 -13   17.40    2.30
   5  -7 -13   19.10    2.70
  -7   5  13   19.30    2.80
   2   5 -13   17.30    2.20
  -5  -2  13   16.00    2.30
   2  -7  13   20.20    2.40
   1  -7 -13   21.40    2.80
  -7   6 -13   20.30    3.60
  -7   1  13   15.20    2.40
  -1  -6  13   20.80    2.40
   7  -6 -13   19.70    2.60
   6   1 -13   16.40    2.30
  -6   7  13   18.90    2.90
  -6  -1 -13   20.10    2.50
  -1   7 -13   19.40    2.50
   1   6 -13   18.00    2.20
   6  -7 -13   16.50    2.60
  -6  -1  13   19.40    2.50
  -7   1 -13   22.30    2.60
  -7   6  13   22.70    3.30
   7  -1 -13   18.20    2.60
   1  -7  13   19.30    2.40
  -1  -6 -13   25.30    2.80
   7   0 -13    9.00    2.40
  -7   7  13    8.20    2.90
  -7   0  13   10.80    2.40
   7  -7 -13    8.20    2.30
   0  -7 -13   15.20    2.80
   0  -7  13    9.00    2.10
   0   7 -13    8.10    1.90
  -8   4 -13    3.10    1.80
  -4  -4  13    4.70    1.90
   4   4 -13   -1.60    1.60
  -4  -4 -13    1.40    2.30
  -8   4  13    6.30    2.30
  -8   4 -13    1.70    2.00
   4  -8 -13    4.80    2.40
   8  -4 -13    3.10    2.40
  -8   3  13   19.60    2.90
   5   3 -13   22.90    2.90
   3  -8 -13   27.70    3.40
  -8   5 -13   25.60    3.20
   8  -5 -13   22.50    2.90
  -8   5 -13   22.40    2.80
  -3  -5  13   23.60    2.80
  -5  -3 -13   21.00    2.90
  -8   5  13   23.90    3.20
   8  -3 -13   23.00    3.70
  -8   3 -13   23.40    2.60
   5  -8 -13   18.00    3.00
   3   5 -13   23.10    2.80
  -3  -5 -13   25.70    3.10
  -5  -3  13   28.20    3.70
  -8   6 -13    9.50    2.20
  -2   8 -13    3.50    1.50
  -6  -2 -13    5.80    2.20
   6   2 -13    4.80    2.10
   8  -6 -13    0.50    2.20
  -8   6 -13    5.80    1.60
  -8   2  13    8.70    2.40
   2  -8 -13    6.90    2.80
  -2  -6  13    5.30    2.00
   6  -8 -13    6.10    2.30
  -8   2 -13    4.90    2.20
  -8   6  13    8.70    3.00
   2   6 -13    4.00    1.90
   8  -2 -13    5.90    2.20
   2  -8  13    4.10    2.00
  -2  -6 -13    1.70    2.00
  -2  -6 -13    6.40    2.50
  -6  -2  13    5.00    2.40
   7   1 -13    3.50    2.50
  -1   8 -13    1.40    1.70
   1  -8 -13    3.90    2.70
  -7  -1 -13    8.60    2.40
   8  -7 -13    2.10    2.30
  -1  -7  13    6.90    2.20
  -8   1  13    5.10    2.50
  -8   1 -13    6.50    2.70
   8  -1 -13    3.00    2.20
   1  -8  13    1.20    2.00
  -1  -7 -13    7.70    2.40
  -1  -7 -13    5.40    2.40
   1   7 -13    1.30    1.90
  -8   7  13    5.60    3.30
   7  -8 -13    1.80    2.40
  -7  -1  13    6.80    2.60
   4  -9 -13   14.30    3.10
   9  -5 -13    6.00    2.70
  -9   5 -13    7.60    2.00
  -5  -4 -13    7.40    2.60
   5   4 -13    3.20    2.10
  -9   5 -13    6.70    2.40
  -9   4  13    1.60    2.60
  -4  -5  13    5.20    2.10
   4   5 -13    2.30    2.30
   5  -9 -13    6.50    2.80
  -4  -5 -13   10.50    2.40
  -9   4 -13    6.20    2.20
  -9   5  13    5.90    2.70
  -5  -4  13   10.90    2.70
   0   0 -14   35.40    2.90
   0   0  14   30.60    2.90
   1   0  14  304.87   16.00
  -1   0  14  300.27   16.00
  -1   1 -14  298.17   16.00
   0   1 -14  297.97   15.90
   0   1  14  315.37   16.00
  -1   0 -14  288.07   16.00
   1   0 -14  297.47   16.00
   1  -1  14  298.77   15.90
  -1   1  14  309.97   16.10
   0  -1 -14  287.77   16.00
   1  -1 -14  301.67   16.00
   0  -1  14  310.37   16.00
   1  -2  14   66.69    4.20
  -1  -1  14   57.79    4.10
   1  -2 -14   68.49    4.30
  -2   1  14   69.99    4.40
  -1   2  14   62.09    4.30
  -1   2 -14   67.89    4.10
   2  -1 -14   60.09    4.20
  -2   1 -14   62.19    4.20
  -1  -1 -14   58.39    4.10
   1   1 -14   57.69    4.10
   0   2 -14   76.59    4.70
   0  -2 -14   73.89    4.80
   2  -2  14   77.89    4.80
  -2   2 -14   81.69    4.80
  -2   0  14   69.89    4.70
  -2   2  14   76.39    5.00
   2  -2 -14   74.59    4.90
   2   0 -14   74.99    4.70
   0  -2  14   74.59    4.80
  -2   0 -14   79.29    4.70
  -2   3  14  336.77   17.20
  -1  -2  14  312.97   17.00
   1  -3 -14  314.57   17.10
  -1   3 -14  320.37   16.90
  -3   1  14  330.67   17.10
   2  -3  14  340.17   17.00
   2   1 -14  315.67   17.00
  -3   2 -14  304.37   17.00
   3  -2 -14  322.87   17.10
  -2  -1 -14  312.77   17.00
  -2  -1  14  311.27   17.00
  -1  -2 -14  306.57   17.00
   3  -1 -14  320.77   17.00
  -3   2  14  326.57   17.20
   2  -3 -14  329.67   17.20
   1   2 -14  323.47   17.00
  -2   3 -14  324.97   17.00
  -3   1 -14  326.57   17.00
   1  -3  14  338.27   17.10
   3  -3 -14   56.79    4.20
  -3   3  14   56.49    4.40
   0  -3 -14   56.99    4.10
   3   0 -14   55.89    3.90
  -3   3 -14   61.99    4.00
  -3   0  14   61.79    3.90
   0  -3  14   54.69    3.90
   0   3 -14   59.49    3.80
  -3   0 -14   59.49    3.90
   4  -2 -14   15.80    2.00
   2  -4  14   14.40    2.00
  -2  -2 -14   13.90    1.90
  -4   2 -14   17.10    1.90
   2   2 -14   15.30    1.80
   2  -4 -14   17.40    2.20
  -4   2  14   13.80    2.10
  -2   4 -14   16.60    1.90
  -2  -2  14   13.20    1.80
   3  -4  14  196.48   10.20
  -3  -1 -14  185.38   10.20
  -3   4  14  206.58   10.60
  -1   4 -14  190.18   10.10
   4  -3 -14  186.78   10.40
  -1  -3  14  184.18   10.20
  -4   1  14  181.48   10.30
   1  -4 -14  177.28   10.40
  -4   3 -14  179.88   10.30
   3   1 -14  187.58   10.30
  -3  -1  14  183.38   10.20
   3  -4 -14  194.58   10.50
   1  -4  14  189.28   10.30
   1   3 -14  186.78   10.20
   4  -1 -14  192.48   10.30
  -1  -3 -14  180.38   10.30
  -3   4 -14  186.28   10.20
  -4   3  14  195.58   10.60
  -4   0  14   34.00    3.10
   0  -4 -14   38.20    3.30
   4  -4 -14   35.80    3.30
   0   4 -14   35.00    2.90
   4   0 -14   37.40    3.10
  -4   0 -14   39.80    3.10
  -4   4  14   34.60    3.70
  -4   4 -14   38.70    3.10
   0  -4  14   33.60    3.00
   5  -3 -14   52.39    3.90
   2  -5 -14   58.49    4.20
  -2   5 -14   54.89    3.50
  -5   2  14   49.80    3.90
  -5   3 -14   50.19    3.80
  -2  -3  14   50.39    3.70
   3   2 -14   50.79    3.70
  -3  -2 -14   53.19    3.80
   3  -5  14   49.50    3.70
   5  -2 -14   54.09    3.90
   3  -5 -14   54.59    4.10
  -2  -3 -14   50.09    3.80
   2   3 -14   52.29    3.60
  -5   3  14   51.09    4.10
  -5   2 -14   45.50    4.90
  -3  -2  14   46.50    3.80
  -3   5 -14   52.29    3.50
   2  -5  14   52.19    3.90
   5  -4 -14   25.00    3.00
   4   1 -14   28.20    3.30
  -4   5  14   30.60    3.50
   1  -5 -14   28.40    3.30
  -1   5 -14   29.80    2.60
  -5   4 -14   29.50    3.00
  -1  -4  14   29.60    2.80
  -5   1  14   21.70    2.90
  -4  -1 -14   30.00    3.00
  -4  -1  14   31.10    3.00
  -5   1 -14   29.60    2.90
   1  -5  14   26.50    2.90
  -1  -4 -14   29.20    3.00
  -5   4  14   32.30    3.50
  -4   5 -14   28.20    2.70
   5  -1 -14   30.00    3.00
   4  -5 -14   26.60    3.30
   1   4 -14   31.20    2.70
  -5   5 -14  113.49    6.50
  -5   0  14  111.69    6.70
   5  -5 -14  107.69    6.70
   0   5 -14  110.39    6.40
   0  -5 -14  107.59    6.70
   5   0 -14  109.19    6.90
  -5   5  14  128.39    7.20
   0  -5  14   90.89    7.60
   3   3 -14   18.20    2.10
  -3   6 -14   16.90    2.20
   3  -6  14   20.90    2.30
   3  -6 -14   25.10    2.90
  -6   3  14   20.70    2.70
  -3  -3 -14   29.00    3.00
   6  -3 -14   23.10    2.60
  -3  -3  14   17.10    2.20
  -6   3 -14   23.00    2.70
   2  -6 -14   10.10    2.40
  -2   6 -14    8.30    1.80
  -6   2  14    8.40    2.10
  -6   4 -14   10.50    1.90
   4   2 -14    9.90    2.00
  -2  -4  14    8.50    1.80
   6  -4 -14    8.40    2.00
   2  -6  14    6.00    1.90
  -6   4  14   10.50    2.30
   2   4 -14   10.00    1.90
  -6   2 -14    6.60    1.80
  -2  -4 -14    8.50    1.90
   6  -2 -14    8.90    2.00
   4  -6 -14   10.60    2.30
  -4  -2  14    8.90    1.80
  -4   6 -14    8.90    1.50
   5   1 -14  127.69    7.70
   1  -6 -14  127.29    8.00
  -1   6 -14  135.99    7.40
  -6   1  14  136.29    7.80
   6  -5 -14  133.59    7.80
  -1  -5  14  129.09    7.60
  -5   6  14  146.59    8.20
   6  -1 -14  126.09    7.80
  -5   6 -14  130.99    7.30
   1   5 -14  129.49    7.50
  -6   5  14  145.79    8.30
   5  -6 -14  129.59    7.90
   1  -6  14  119.79    7.70
  -1  -5 -14  125.79    7.70
  -5  -1  14  136.49    7.80
  -6   0  14    4.20    2.00
   0   6 -14    3.80    1.60
  -6   6 -14    5.60    1.60
  -6   6  14    4.80    2.70
   6   0 -14    5.00    1.90
   6  -6 -14    2.60    2.20
   0  -6  14    5.20    1.80
  -6   0 -14    5.50    2.10
   0  -6 -14    4.00    2.10
  -3  -4  14   80.79    5.40
  -7   3  14   75.89    5.60
  -7   4 -14   76.79    5.10
  -7   4 -14   74.79    5.30
   3  -7 -14   89.39    5.90
   4   3 -14   74.19    5.20
   7  -4 -14   77.49    5.50
   3   4 -14   76.19    5.20
   7  -3 -14   83.49    5.60
  -4  -3  14   79.19    5.40
  -7   3 -14   81.99    5.40
  -7   3 -14   83.69    5.20
  -7   4  14   84.19    5.80
   4  -7 -14   90.59    5.80
   3  -7  14   85.39    5.40
   5   2 -14   15.30    2.30
  -7   5 -14   19.60    2.40
  -5  -2 -14   20.30    2.90
  -2  -5  14   18.60    2.40
  -7   2  14   19.30    2.60
   7  -5 -14   19.90    2.70
   2  -7 -14   20.00    3.10
  -7   5 -14   25.60    3.10
  -2   7 -14   20.10    2.40
   2  -7  14   20.30    2.50
  -7   5  14   23.60    3.40
  -7   2 -14   19.20    2.40
   5  -7 -14   20.70    2.80
  -5  -2  14   15.60    2.40
   2   5 -14   17.60    2.30
   7  -2 -14   22.10    2.80
  -2  -5 -14   21.80    2.70
   6   1 -14   29.90    3.60
   1  -7 -14   31.80    4.10
  -6  -1 -14   34.10    3.80
  -7   6 -14   37.20    3.30
  -1   7 -14   32.00    3.00
   7  -6 -14   34.10    3.80
  -1  -6  14   28.90    3.40
  -7   1  14   29.70    3.70
  -6   7  14   34.40    3.70
   6  -7 -14   32.70    3.80
  -7   1 -14   28.00    3.60
  -1  -6 -14   30.60    3.60
   1  -7  14   31.60    3.40
   7  -1 -14   29.00    3.60
   1   6 -14   31.00    3.20
  -6  -1  14   30.50    3.70
  -7   6  14   37.00    4.70
   7  -7 -14    4.70    2.40
  -7   0 -14    4.00    2.20
   0  -7  14    3.20    2.00
   0   7 -14    2.40    1.70
  -7   7  14    7.30    3.10
   0  -7 -14    6.30    2.50
  -7   0  14    5.90    2.50
   7   0 -14    4.60    2.40
   4   4 -14    0.10    1.70
  -4  -4  14    3.20    2.00
   4  -8 -14    6.90    2.60
  -8   4 -14    1.80    1.90
  -8   4  14    4.90    2.40
   8  -4 -14    4.40    2.40
  -4  -4 -14    1.80    2.20
  -8   4 -14    0.60    2.10
  -5  -3 -14   50.59    4.60
  -3  -5  14   48.60    4.20
  -8   5 -14   44.90    4.20
   5   3 -14   44.10    4.10
  -8   3  14   53.99    4.50
  -3   8 -14   48.20    3.30
  -8   5 -14   49.70    3.70
   3  -8 -14   51.59    5.00
   8  -5 -14   42.70    4.40
   8  -3 -14   44.10    4.40
   5  -8 -14   50.59    4.70
  -8   3 -14   47.10    4.50
  -8   5  14   42.10    4.90
  -3  -5 -14   45.20    4.40
   3  -8  14   39.10    4.20
  -5  -3  14   51.69    4.40
  -8   3 -14   43.00    4.00
   3   5 -14   44.70    4.00
  -2  -6  14    6.20    2.30
   8  -6 -14    4.30    2.40
  -8   2  14    5.70    2.40
  -6  -2 -14    2.00    2.50
  -8   6 -14    7.80    2.30
   6   2 -14    5.10    2.40
  -2   8 -14    2.70    1.60
   2  -8 -14    1.80    2.90
  -8   6 -14    3.60    1.60
   8  -2 -14   -1.90    2.40
  -6  -2  14    5.60    2.40
   6  -8 -14    4.50    2.50
  -2  -6 -14    4.00    2.10
   2   6 -14    2.10    2.10
  -8   2 -14    4.20    2.10
   2  -8  14    3.40    2.20
  -2  -6 -14    4.80    2.30
  -8   6  14    3.10    3.00
  -1   8 -14    5.40    1.90
  -7  -1 -14    6.10    2.50
   7   1 -14    4.20    2.30
  -1  -7  14    6.30    2.30
  -8   1  14    6.10    2.40
   8  -7 -14    5.30    2.60
   1  -8 -14    8.60    3.00
   1  -8  14   10.60    2.40
   7  -8 -14    7.00    2.70
   8  -1 -14    1.60    2.50
  -8   1 -14    5.30    2.70
  -1  -7 -14    6.40    2.60
   1   7 -14    2.10    2.10
  -8   7  14   14.40    3.70
  -7  -1  14    9.70    2.50
   0   0 -15    3.50    1.50
   0   0  15   -0.40    1.60
   0   1  15  134.59    7.60
   1  -1  15  129.39    7.50
   0  -1 -15  133.19    7.60
   1  -1 -15  134.79    7.60
   0   1 -15  129.99    7.50
  -1   1 -15  132.79    7.50
   0  -1  15  127.79    7.60
   1   0  15  134.19    7.60
  -1   1  15  135.39    7.60
   1   0 -15  120.49    7.50
  -1   0  15  132.29    7.60
  -1   0 -15  129.89    7.60
   1  -2 -15    3.60    1.50
   1  -2  15   -0.30    1.40
  -1  -1  15    1.30    1.50
   2  -1 -15    1.20    1.50
  -1   2 -15    0.20    1.40
   1   1 -15   -1.30    1.30
  -2   1  15    0.60    1.80
  -1   2  15   -0.30    1.60
  -2   1 -15    3.60    1.60
  -1  -1 -15    0.10    1.50
   2  -2 -15   59.39    4.20
  -2   2 -15   62.69    4.10
  -2   2  15   55.99    4.30
   0   2 -15   55.39    3.90
   0  -2 -15   54.29    4.10
   2   0 -15   57.39    4.00
  -2   0 -15   52.79    4.00
  -2   0  15   52.99    4.00
   2  -2  15   59.79    4.10
   0  -2  15   60.99    4.20
  -3   2 -15  114.69    6.90
  -2   3  15  128.09    7.10
   1  -3 -15  115.39    7.00
  -1   3 -15  121.19    6.70
   2  -3  15  120.19    6.90
  -3   1  15  116.39    6.90
   3  -2 -15  111.59    6.90
  -1  -2  15  113.59    6.80
  -2  -1 -15  117.09    6.80
   2   1 -15  113.29    6.80
   3  -1 -15  115.19    6.90
  -2  -1  15  112.29    6.80
   1  -3  15  129.19    7.00
   2  -3 -15  119.79    7.00
   1   2 -15  114.49    6.70
  -3   2  15  121.09    7.10
  -2   3 -15  118.99    6.80
  -1  -2 -15  107.89    6.80
  -3   1 -15  110.59    6.80
   3  -3 -15    2.30    1.60
   0  -3  15   -1.00    1.50
   3   0 -15    0.50    1.30
  -3   0 -15    0.10    1.50
  -3   3 -15    2.90    1.50
  -3   3  15   -0.10    2.00
   0  -3 -15    0.80    1.60
   0   3 -15    0.40    1.30
  -3   0  15   -0.10    1.40
   2  -4  15   -2.00    1.60
   2  -4 -15    1.70    1.80
  -4   2 -15   -0.50    1.40
   2   2 -15    0.40    1.40
  -2  -2  15   -1.40    1.40
  -2   4 -15   -2.40    1.30
  -2  -2 -15    1.80    1.50
  -4   2  15   -0.70    1.60
   4  -2 -15   -2.10    1.40
  -3   4  15   95.19    5.80
  -4   1  15   86.49    5.40
  -4   3 -15   79.99    5.40
   3   1 -15   85.69    5.30
   4  -3 -15   82.19    5.50
  -1   4 -15   85.79    5.20
   3  -4  15   81.49    5.30
  -3  -1 -15   77.59    5.30
   1  -4 -15   80.59    5.60
  -1  -3  15   86.09    5.30
  -4   1 -15   87.39    5.70
   1   3 -15   85.89    5.30
  -4   3  15   88.79    5.80
  -3  -1  15   85.59    5.30
  -3   4 -15   85.59    5.30
   3  -4 -15   94.59    5.60
   1  -4  15   90.89    5.50
   4  -1 -15   90.89    5.50
  -1  -3 -15   85.89    5.50
  -4   4 -15   28.60    2.90
   0  -4 -15   25.10    3.10
   4  -4 -15   21.10    2.60
   0  -4  15   25.30    2.80
   4   0 -15   22.90    2.80
  -4   0  15   25.00    2.90
  -4   0 -15   26.40    2.90
  -4   4  15   28.70    3.60
  -5   2  15   16.70    2.30
  -5   3 -15   21.50    2.70
  -2   5 -15   22.60    2.50
  -2  -3  15   22.10    3.10
   5  -3 -15   21.00    2.50
   3  -5  15   20.20    2.40
  -3  -2 -15   19.30    2.30
   2  -5 -15   29.40    3.20
   3   2 -15   20.60    2.40
   3  -5 -15   22.70    2.70
  -3   5 -15   20.50    2.40
   2   3 -15   19.10    2.20
   5  -2 -15   20.40    2.40
  -5   3  15   24.80    2.90
   2  -5  15   23.90    3.00
  -5   2 -15   24.30    2.80
  -2  -3 -15   23.20    2.60
   1  -5 -15    0.10    1.80
  -4  -1 -15   -1.40    1.40
  -1  -4  15    2.10    1.50
  -4   5  15   -1.90    2.20
  -5   1  15    1.20    1.90
  -1   5 -15   -1.00    1.40
  -5   4 -15    1.40    3.10
   5  -4 -15    0.20    1.60
   4   1 -15   -0.10    1.50
   4  -5 -15    0.90    1.90
  -1  -4 -15    0.10    1.80
   1  -5  15   -0.50    1.70
  -4  -1  15    3.20    2.90
   1   4 -15    1.50    1.40
  -4   5 -15    0.60    1.40
   5  -1 -15   -1.10    1.70
  -5   1 -15   -0.30    1.60
  -5   4  15   -1.20    2.10
   0  -5 -15   28.30    3.40
  -5   5 -15   31.00    3.00
  -5   0 -15   24.50    3.30
   0  -5  15   26.20    3.10
   5   0 -15   23.90    3.10
  -5   5  15   35.90    4.00
   5  -5 -15   28.70    3.40
  -5   0  15   24.50    4.40
   0   5 -15   25.30    2.80
  -6   3  15    1.80    1.90
  -6   3 -15    0.00    1.70
  -3  -3  15    0.20    1.70
   3  -6 -15    2.60    2.20
  -3  -3 -15    0.70    1.60
   3   3 -15   -0.90    1.40
  -3   6 -15   -2.30    1.40
   3  -6  15   -0.10    1.80
   6  -3 -15   -1.10    1.80
  -2   6 -15    5.60    1.60
   4   2 -15    5.20    1.70
  -4  -2 -15    7.20    2.10
  -6   2  15    5.10    2.00
   2  -6 -15   16.20    2.60
  -6   4 -15    6.40    2.00
   6  -4 -15    6.90    2.00
  -2  -4  15    5.80    1.80
   4  -6 -15    6.50    2.20
   2  -6  15    5.90    2.20
  -4   6 -15    7.60    1.60
  -4  -2  15    8.20    2.20
  -6   2 -15    9.30    1.90
  -6   4  15    4.90    2.30
  -2  -4 -15    5.60    1.90
   6  -2 -15    3.70    1.90
   2   4 -15    5.90    1.80
   1  -6 -15   50.19    4.70
  -6   5 -15   58.89    4.20
  -1   6 -15   55.39    3.90
  -1  -5  15   47.60    4.10
   5   1 -15   50.79    4.20
  -5   6  15   49.30    4.80
   6  -5 -15   56.29    4.40
  -1  -5 -15   54.69    4.60
  -5   6 -15   52.49    3.80
   1   5 -15   51.39    4.00
   6  -1 -15   58.69    4.40
   1  -6  15   48.60    4.20
   5  -6 -15   50.79    4.50
  -6   1 -15   53.39    4.40
  -6   5  15   55.29    5.00
  -5  -1  15   57.39    4.40
  -6   6 -15    4.60    1.70
   6   0 -15    0.20    1.90
   6  -6 -15    2.10    2.10
   0  -6  15    0.50    1.70
   0   6 -15   -1.20    1.50
  -6   6  15    2.30    2.90
  -6   0  15    0.40    2.10
   0  -6 -15    0.40    2.20
  -3  -4  15   28.70    3.50
   3  -7 -15   30.10    3.50
  -7   3  15   25.20    3.10
  -7   4 -15   17.70    2.50
   4   3 -15   22.60    2.80
  -3   7 -15   31.80    2.70
   7  -4 -15   26.20    3.20
  -7   4 -15   26.90    2.90
  -7   4  15   21.00    3.20
   4  -7 -15   35.00    4.00
  -7   3 -15   28.20    3.20
  -7   3 -15   23.10    2.90
   7  -3 -15   28.90    3.20
   3   4 -15   25.00    2.90
  -4  -3  15   20.90    2.70
   3  -7  15   32.00    4.60
  -3  -4 -15   27.30    3.00
   5   2 -15   -0.30    2.10
  -7   5 -15   -1.30    1.50
  -7   5 -15    3.60    2.00
  -7   2  15    1.80    2.90
   7  -5 -15    0.50    2.10
  -2  -5  15   -1.30    1.90
  -2   7 -15   -0.20    1.50
   2  -7 -15    2.80    2.60
  -7   5  15   -0.80    2.70
   2  -7  15    2.50    2.20
   7  -2 -15   -3.00    1.80
  -7   2 -15    0.40    1.90
   5  -7 -15   -0.20    2.20
   2   5 -15    0.20    1.70
  -2  -5 -15   -2.80    2.00
  -7   2 -15   -0.10    2.10
  -5  -2  15   -0.20    2.00
  -1   7 -15   15.20    2.00
  -7   1  15   16.80    2.80
   7  -6 -15   11.20    2.60
  -7   6 -15   14.20    1.90
  -1  -6  15   17.00    2.40
  -6   7  15   18.60    3.20
  -7   6 -15   17.40    2.20
   6   1 -15   14.70    2.60
   1  -7 -15   13.50    3.00
  -6  -1 -15   15.10    2.70
  -7   1 -15   13.90    2.40
   1   6 -15   12.40    2.20
   7  -1 -15   10.00    2.30
  -6  -1  15   15.00    2.50
   6  -7 -15   15.60    2.80
   1  -7  15   14.30    2.40
  -7   6  15   11.30    3.40
  -1  -6 -15   14.10    2.70
  -7   7  15   -5.30    3.20
   0   7 -15    0.40    1.80
   0  -7  15   -0.50    2.00
  -7   0 -15   -1.20    2.30
   0  -7 -15   -1.00    2.70
   7  -7 -15    2.80    2.50
  -7   0  15    2.80    2.30
   7   0 -15    3.40    2.30
   4  -8 -15    2.80    2.50
  -8   4 -15    1.30    1.90
  -8   4 -15   -1.20    2.20
  -4  -4 -15    0.30    2.30
  -4  -4  15    2.60    2.20
  -8   4  15   -1.40    2.40
   8  -4 -15   -3.80    2.30
   4   4 -15    0.40    2.20
  -8   5 -15   20.00    2.80
   3  -8 -15   25.00    3.40
   8  -5 -15   23.70    3.20
  -5  -3 -15   25.60    3.30
  -8   5 -15   19.90    2.40
   5   3 -15   15.70    2.50
  -8   3  15   18.70    2.90
  -3  -5  15   19.70    2.70
  -3   8 -15   19.80    2.40
  -8   5  15   19.30    3.30
  -8   3 -15   21.30    3.00
  -3  -5 -15   22.00    3.40
   3  -8  15   16.60    2.80
   8  -3 -15   17.40    3.00
  -5  -3  15   19.30    2.80
   3   5 -15   21.00    2.80
   5  -8 -15   22.60    3.30
  -8   3 -15   22.50    2.80
  -2   8 -15    3.40    1.70
  -8   6 -15    1.60    1.60
  -8   6 -15    9.60    2.30
  -8   2  15    3.40    2.50
  -6  -2 -15   -0.60    2.40
   2  -8 -15    7.50    3.20
   8  -6 -15   -0.60    2.50
  -2  -6  15    0.60    2.10
   6   2 -15    2.20    2.10
   8  -2 -15    3.20    2.50
  -8   2 -15   -0.90    2.10
   2  -8  15    2.30    2.50
  -2  -6 -15    2.30    2.50
   2   6 -15    2.30    2.10
  -6  -2  15   -0.30    2.20
   6  -8 -15    1.70    2.60
  -8   6  15   -0.20    3.30
   0   0 -16    1.10    1.60
   0   0  16   -1.20    1.70
   1   0  16  106.29    6.10
  -1   1 -16   96.49    6.00
  -1   1  16   93.89    6.10
  -1   0 -16   99.79    6.00
   0  -1  16   95.09    6.00
   1  -1  16  102.69    6.00
   0   1  16   99.99    6.10
   0   1 -16   89.89    5.90
   0  -1 -16   98.59    6.10
   1   0 -16   96.19    6.00
  -1   0  16   96.39    6.10
   1  -1 -16   93.79    6.00
  -1  -1  16   58.79    4.30
  -2   1  16   62.89    4.50
  -1   2 -16   60.59    4.20
  -1  -1 -16   57.69    4.30
   1   1 -16   59.69    4.20
   1  -2 -16   59.29    4.40
  -1   2  16   56.99    4.50
  -2   1 -16   59.39    4.30
   1  -2  16   61.19    4.40
   2  -1 -16   61.99    4.40
   2  -2  16  884.91   43.30
   2   0 -16  828.12   43.30
  -2   0 -16  795.72   43.30
  -2   2  16  888.61   43.50
   0  -2  16  856.71   43.40
  -2   2 -16  848.42   43.30
   2  -2 -16  842.92   43.40
   0  -2 -16  787.02   43.30
   0   2 -16  819.32   43.30
  -1   3 -16  158.68    9.00
  -1  -2  16  162.58    9.10
   2  -3  16  177.58    9.10
   3  -2 -16  157.38    9.20
   1  -3 -16  159.28    9.30
  -2  -1 -16  152.38    9.10
   2   1 -16  158.98    9.00
  -3   2 -16  157.38    9.20
  -2   3  16  185.68    9.40
  -3   1  16  158.58    9.20
  -3   1 -16  147.99    9.00
  -2  -1  16  166.58    9.10
   3  -1 -16  158.68    9.10
   1   2 -16  159.58    9.00
  -3   2  16  168.28    9.40
   2  -3 -16  164.08    9.20
  -1  -2 -16  154.88    9.20
  -2   3 -16  160.18    9.10
   1  -3  16  165.48    9.20
  -3   3 -16   43.80    3.40
   0   3 -16   37.30    3.20
   3  -3 -16   40.50    3.70
   0  -3 -16   35.70    3.60
   0  -3  16   37.40    3.50
  -3   3  16   38.90    3.90
  -3   0 -16   37.10    3.40
   3   0 -16   41.80    3.40
  -3   0  16   36.70    3.40
   2   2 -16   -2.30    1.30
  -2  -2  16    1.30    1.80
   2  -4 -16    2.40    1.80
  -4   2 -16   -0.80    1.80
   4  -2 -16   -0.60    1.60
   2  -4  16    0.70    1.80
  -2   4 -16   -0.60    1.40
  -2  -2 -16    2.20    1.60
  -4   2  16    0.20    1.90
  -4   1  16   48.30    4.00
   3   1 -16   46.90    4.10
  -3  -1 -16   44.30    3.90
  -4   3 -16   44.90    5.30
   4  -3 -16   50.59    4.00
   1  -4 -16   51.69    4.20
  -1  -3  16   43.90    3.70
  -3   4  16   52.09    4.30
   3  -4  16   42.30    3.80
  -4   3  16   51.89    4.30
   3  -4 -16   51.89    4.10
   4  -1 -16   47.20    3.90
  -3   4 -16   50.59    3.70
  -4   1 -16   48.20    3.80
  -1  -3 -16   42.60    3.90
   1   3 -16   48.10    3.60
  -3  -1  16   49.70    3.80
   1  -4  16   53.59    4.10
  -4   4 -16  371.66   21.10
   0   4 -16  397.46   20.70
  -4   0  16  402.06   20.80
   4   0 -16  399.16   21.40
   0  -4 -16  382.46   20.90
  -4   4  16  446.66   21.20
   0  -4  16  344.57   21.50
  -4   0 -16  401.46   20.80
   4  -4 -16  400.36   20.90
  -5   3 -16   28.20    3.20
  -3  -2 -16   37.40    3.30
  -2   5 -16   32.20    2.90
   3  -5  16   25.20    3.20
  -2  -3  16   26.20    3.00
   5  -3 -16   28.50    3.30
  -5   2  16   30.60    3.50
   2  -5 -16   31.80    3.70
   3   2 -16   27.30    3.00
  -3  -2  16   25.60    3.10
   5  -2 -16   25.70    3.20
  -5   3  16   24.70    3.10
   2  -5  16   29.00    3.40
   3  -5 -16   33.10    3.50
  -2  -3 -16   31.00    3.50
   2   3 -16   25.60    2.90
  -5   2 -16   31.50    3.20
   4   1 -16   23.30    2.90
  -4   5  16   21.90    3.10
  -5   1  16   24.00    2.70
  -4  -1 -16   25.80    3.10
  -5   4 -16   25.30    3.20
  -1   5 -16   21.10    2.80
   5  -4 -16   23.60    2.80
  -1  -4  16   23.80    2.70
   1  -5 -16   27.80    3.20
  -5   4  16   27.50    3.30
   1   4 -16   24.80    2.80
   5  -1 -16   22.10    3.50
  -5   1 -16   25.40    3.10
  -4  -1  16   20.30    2.50
   4  -5 -16   26.40    2.90
  -1  -4 -16   23.70    2.70
   1  -5  16   20.40    2.80
  -5   0 -16  149.09    8.30
  -5   5 -16  138.99    8.00
   5   0 -16  142.19    8.20
   5  -5 -16  136.19    8.40
  -5   5  16  156.08    8.80
   0  -5  16  135.99    8.10
   0   5 -16  132.89    8.00
  -5   0  16  130.09    8.20
   0  -5 -16  137.99    8.40
   3  -6 -16   22.50    3.10
  -3   6 -16   21.20    2.30
  -6   3  16   17.50    2.80
   3   3 -16   20.60    2.50
  -3  -3 -16   21.90    2.60
  -3  -3  16   24.00    2.70
   6  -3 -16   20.10    3.00
  -6   3 -16   20.80    2.60
   3  -6  16   22.50    2.80
  -4  -2 -16  278.67   14.30
   2  -6 -16  251.27   14.40
  -2  -4  16  260.37   14.10
  -6   2  16  259.77   14.30
  -6   4 -16  247.48   14.20
   6  -4 -16  268.17   14.30
   4   2 -16  255.97   14.10
  -2   6 -16  282.87   13.90
   6  -2 -16  250.97   14.40
  -4  -2  16  266.37   14.20
   4  -6 -16  257.37   14.40
  -6   4  16  255.17   14.50
  -6   2 -16  257.97   14.10
  -2  -4 -16  257.37   14.30
  -4   6 -16  243.08   13.90
   2   4 -16  257.97   14.10
   2  -6  16  278.67   14.30
   5   1 -16   52.39    4.20
  -1  -5  16   47.80    4.20
  -5  -1 -16   51.89    4.60
   1  -6 -16   53.69    4.90
  -6   5 -16   59.99    4.30
  -1   6 -16   53.09    3.90
  -5   6  16   60.69    5.00
   6  -5 -16   50.09    4.50
  -6   1  16   57.49    4.60
  -6   5  16   56.79    5.20
   1   5 -16   53.79    4.10
  -6   1 -16   46.00    4.40
   5  -6 -16   48.30    4.60
  -5  -1  16   55.89    4.50
  -5   6 -16   48.00    3.90
  -1  -5 -16   52.49    4.70
   1  -6  16   56.09    4.40
   6  -1 -16   49.99    4.40
  -6   6 -16    4.80    1.80
   0  -6 -16    0.50    2.40
  -6   0  16    0.50    2.40
   0  -6  16   -0.40    1.90
  -6   0 -16   -0.80    2.20
   6   0 -16   -1.00    1.70
   0   6 -16    0.70    1.80
   6  -6 -16   -0.60    2.20
  -6   6  16   -1.30    2.80
  -7   3  16   71.29    5.60
   4   3 -16   69.49    5.20
   3  -7 -16   75.99    5.80
  -3  -4  16   68.89    5.30
   7  -4 -16   73.69    5.50
  -7   4 -16   67.89    5.30
  -4  -3 -16   78.89    5.70
  -3   7 -16   76.59    4.70
  -7   4  16   75.99    5.80
   7  -3 -16   76.99    5.40
  -4   7 -16   73.99    4.70
   3   4 -16   68.39    5.20
  -4  -3  16   63.99    5.30
  -3  -4 -16   73.19    5.60
  -7   3 -16   70.49    5.40
   3  -7  16   79.39    5.30
   4  -7 -16   76.79    5.70
  -2  -5  16    3.60    2.10
   5   2 -16    6.80    2.10
  -7   2  16    7.60    2.30
  -5  -2 -16    5.20    2.60
   7  -5 -16    4.00    2.40
  -7   5 -16   10.00    2.30
   2  -7 -16    9.70    3.10
  -2   7 -16    8.80    1.90
  -5  -2  16    9.70    2.40
   2  -7  16    8.50    2.40
  -2  -5 -16    6.30    2.20
   5  -7 -16    9.90    2.80
  -7   5  16    7.10    2.90
   7  -2 -16    4.40    2.20
   2   5 -16    6.20    2.10
  -7   2 -16    6.70    2.20
  -7   2 -16   10.10    2.40
  -7   1  16    3.70    2.40
  -6   7  16    7.40    3.20
  -7   6 -16   12.90    2.10
  -1  -6  16    6.60    2.40
   6   1 -16    5.30    2.50
   1  -7 -16    7.60    2.80
   7  -6 -16   11.10    2.80
  -6  -1 -16    7.80    2.50
  -1   7 -16    7.20    2.00
  -6  -1  16    6.00    2.30
  -1  -6 -16    7.20    2.70
  -7   6  16   11.60    3.50
   6  -7 -16    7.40    2.60
   7  -1 -16    8.90    2.40
   1   6 -16    9.00    2.10
   1  -7  16    8.10    2.40
  -7   1 -16    3.40    2.50
  -7   1 -16    7.80    2.50
  -7   7  16   16.70    3.80
   7   0 -16   11.20    2.70
  -7   0 -16   16.30    2.80
  -7   0  16    9.10    2.80
   7  -7 -16   16.90    3.20
   0   7 -16   11.00    2.30
   0  -7  16   17.10    2.70
   0  -7 -16   22.90    3.40
   8  -4 -16    1.30    2.40
  -8   4  16    4.20    3.00
  -4  -4 -16   -2.60    2.30
  -8   4 -16   -1.40    2.40
   4  -8 -16    7.00    2.90
  -4  -4 -16   -0.30    2.50
   4   4 -16    0.30    2.00
  -8   4 -16   -1.00    2.00
  -4  -4  16    5.40    2.40
  -8   5 -16    9.20    2.20
   5   3 -16    8.10    2.50
   8  -5 -16    6.70    2.70
   3  -8 -16   16.20    3.40
  -8   3  16    7.90    2.70
  -3  -5  16   10.60    2.60
  -5  -3 -16   12.20    2.80
  -3   8 -16    8.30    1.80
  -8   5 -16    8.20    2.60
   3  -8  16    8.50    2.70
  -8   3 -16    9.70    2.50
   8  -3 -16    6.60    2.60
  -5  -3  16    9.50    2.50
   5  -8 -16   10.20    3.10
   3   5 -16    9.10    2.30
  -8   3 -16    8.40    2.70
  -8   5  16   13.10    3.40
  -3  -5 -16    9.20    2.80
   0   0  17   -2.00    1.80
   0   0 -17    0.50    1.50
   0   1 -17  119.49    7.20
   1  -1  17  121.09    7.30
   0  -1  17  122.19    7.30
  -1   1 -17  129.09    7.30
  -1   0 -17  118.19    7.20
   1  -1 -17  121.39    7.30
   1   0  17  123.89    7.30
   0   1  17  122.99    7.40
   1   0 -17  114.09    7.30
  -1   0  17  114.09    7.40
  -1   1  17  129.99    7.40
   0  -1 -17  128.29    7.30
   1  -2 -17    0.20    1.80
  -1   2  17   -0.70    1.90
  -1  -1  17   -1.10    1.70
   2  -1 -17    1.40    1.80
  -2   1 -17    0.40    1.80
   1   1 -17    1.60    1.80
  -1   2 -17    2.40    1.60
  -1  -1 -17   -0.10    1.50
  -2   1  17   -1.40    1.80
   1  -2  17   -2.10    1.80
   2  -2  17  405.46   20.40
   2   0 -17  376.26   20.40
  -2   2  17  417.86   20.60
  -2   2 -17  384.16   20.40
   0  -2 -17  376.76   20.40
   0  -2  17  391.06   20.40
  -2   0 -17  358.36   20.30
   2  -2 -17  389.16   20.40
  -2   0  17  379.86   20.40
   0   2 -17  370.06   20.30
  -1  -2  17  140.49    7.90
   2  -3  17  148.89    8.00
   3  -2 -17  134.19    8.00
  -3   1  17  130.79    8.10
  -2  -1 -17  134.19    8.00
  -2   3  17  148.99    8.20
   1  -3 -17  137.19    8.10
  -2  -1  17  128.19    7.90
  -3   2  17  143.29    8.20
   2  -3 -17  138.99    8.00
  -3   1 -17  112.29    8.30
   3  -1 -17  126.89    7.90
   1  -3  17  146.89    8.00
  -2   3 -17  142.49    8.00
  -1  -2 -17  128.89    8.00
   1   2 -17  115.69    8.20
  -3   0 -17    6.20    1.80
   3  -3 -17   13.20    2.20
   0   3 -17    4.70    1.70
  -3   3  17    6.40    2.20
   0  -3 -17    7.30    2.00
   3   0 -17    7.90    2.30
  -3   0  17    4.60    1.90
   0  -3  17    5.50    2.20
   2   2 -17   -1.90    1.50
  -2   4 -17    0.10    1.60
   2  -4  17   -2.10    1.80
  -4   2  17   -2.10    2.20
  -2  -2 -17    0.50    1.80
   2  -4 -17   -1.40    1.70
  -4   2 -17    0.60    1.80
  -2  -2  17   -0.50    2.10
   4  -2 -17    0.10    1.60
  -3  -1 -17   57.49    4.40
  -4   1  17   55.09    4.40
  -3   4  17   58.39    4.80
   4  -3 -17   55.39    4.50
  -1   4 -17   54.89    4.10
   3  -4  17   58.79    4.30
   1  -4 -17   55.99    4.60
   3   1 -17   55.19    4.20
  -4   3 -17   56.59    4.40
  -1  -3  17   54.29    4.20
  -4   3  17   55.89    4.70
  -1  -3 -17   56.59    4.40
   4  -1 -17   49.90    4.30
  -4   1 -17   57.09    4.20
  -3   4 -17   54.59    4.10
   1  -4  17   47.00    6.00
   3  -4 -17   61.39    4.50
   1   3 -17   54.69    4.10
   0   4 -17  187.48   10.90
  -4   4  17  221.08   11.50
  -4   4 -17  209.68   11.00
   4   0 -17  194.48   11.10
   4  -4 -17  197.78   11.20
   0  -4  17  184.68   11.00
   0  -4 -17  186.78   11.20
  -4   0 -17  203.78   11.10
   3   2 -17   45.40    3.80
  -5   2  17   38.80    4.30
  -5   3 -17   46.80    4.10
  -2  -3  17   40.90    3.90
   3  -5  17   45.20    5.10
   2  -5 -17   49.90    4.50
  -2   5 -17   45.10    3.70
   5  -3 -17   49.60    4.20
  -3  -2 -17   46.90    4.20
   2  -5  17   45.80    4.10
   5  -2 -17   41.40    4.10
  -3   5 -17   43.30    3.70
  -3  -2  17   44.60    4.00
   3  -5 -17   49.80    4.30
  -5   3  17   51.69    4.60
  -2  -3 -17   48.10    4.20
  -5   2 -17   55.19    4.00
   2   3 -17   45.70    3.80
  -1   5 -17    3.30    1.80
   5  -4 -17    5.50    2.30
  -1  -4  17    3.60    2.10
  -4   5  17    3.10    2.50
  -5   4 -17    6.20    2.00
  -4  -1 -17    4.00    2.00
   4   1 -17    3.00    1.90
   1  -5 -17    3.70    2.10
  -4   5 -17    4.60    1.90
   4  -5 -17    9.00    2.50
  -5   4  17    6.30    2.60
  -1  -4 -17    5.10    2.30
   1  -5  17   -1.70    2.10
   5  -1 -17    2.50    1.90
  -5   1 -17    5.50    2.00
   1   4 -17    4.80    1.80
  -4  -1  17    3.30    1.90
   0  -5  17  103.39    6.60
   0  -5 -17  103.79    6.90
  -5   0  17  105.69    6.70
   0   5 -17  103.09    6.40
   5  -5 -17   92.99    6.70
  -5   5 -17  103.39    6.40
  -5   5  17  113.49    7.30
   5   0 -17  103.09    6.60
  -5   0 -17  106.09    6.60
   3  -6 -17    1.60    2.50
   3  -6  17   -1.90    2.20
   6  -3 -17    3.30    2.10
  -3  -3  17    1.20    2.00
  -3   6 -17    1.20    1.70
  -3  -3 -17    2.00    2.20
   3   3 -17   -0.60    1.90
  -6   3 -17    1.40    2.00
  -6   3  17    0.90    2.50
  -2   6 -17  125.39    7.20
  -4  -2 -17  124.39    7.60
   6  -4 -17  119.59    7.70
   4   2 -17  114.59    7.40
  -6   2  17   97.19    9.40
  -2  -4  17  126.89    7.40
  -6   4 -17  118.39    7.50
   2  -6 -17  118.29    7.90
  -4  -2  17  125.99    7.50
   2   4 -17  109.99    7.30
  -6   4  17  128.19    8.10
   2  -6  17  129.49    7.60
   4  -6 -17  129.19    7.90
  -2  -4 -17  118.79    7.70
  -6   2 -17  128.59    7.60
  -4   6 -17  122.09    7.10
   6  -2 -17  123.19    7.60
   1  -6 -17   38.60    4.60
  -6   5 -17   39.60    3.70
  -5   6  17   39.80    4.70
  -5  -1 -17   39.90    4.30
  -6   1  17   40.30    4.20
  -1   6 -17   39.60    3.50
   5   1 -17   31.10    3.80
  -1  -5  17   35.60    3.80
   6  -5 -17   39.70    4.20
   1  -6  17   39.20    4.00
  -6   1 -17   34.40    4.10
  -5   6 -17   32.30    3.40
   5  -6 -17   33.70    4.20
   6  -1 -17   34.10    4.00
   1   5 -17   39.40    3.60
  -6   5  17   40.00    5.00
  -1  -5 -17   30.90    3.40
  -5  -1  17   38.10    4.10
  -6   6 -17    2.50    1.90
   6   0 -17   -1.40    1.90
   6  -6 -17    4.20    2.50
  -6   6  17    2.00    3.00
  -6   0 -17   -1.20    2.40
   0   6 -17   -2.90    1.80
   0  -6  17    0.90    2.20
  -6   0  17    0.60    2.10
   0  -6 -17    3.30    2.60
   4   3 -17   48.40    4.50
  -7   3  17   51.29    5.40
   3  -7 -17   54.29    5.10
   7  -4 -17   51.19    6.10
  -7   4 -17   50.49    4.70
  -3  -4  17   52.29    4.60
  -3   7 -17   49.90    4.00
  -4  -3 -17   50.69    4.90
   3   4 -17   46.40    4.40
  -4  -3  17   54.89    4.70
   3  -7  17   48.40    4.60
  -7   3 -17   51.79    4.80
   7  -3 -17   46.40    4.70
   4  -7 -17   57.89    5.00
  -7   4  17   52.09    5.20
  -3  -4 -17   60.19    5.00
  -4   7 -17   50.39    3.90
   7  -5 -17    2.70    2.70
  -7   5 -17    7.10    2.50
  -2   7 -17    1.40    1.80
   5   2 -17    1.10    2.00
   2  -7 -17    5.00    3.00
  -7   2  17    5.20    2.50
  -5  -2 -17    6.30    2.70
  -2  -5  17    3.60    2.30
   5  -7 -17    5.30    2.70
  -7   2 -17    0.00    2.30
  -2  -5 -17    2.00    2.50
  -7   2 -17    0.80    2.20
   2  -7  17    0.00    2.40
  -7   5  17    3.10    3.10
   2   5 -17    1.20    2.00
   7  -2 -17    2.60    2.20
  -5  -2  17    2.10    2.20
  -6   7  17    9.90    3.40
  -7   6 -17   16.00    2.40
  -6  -1 -17    9.40    3.00
   1  -7 -17   12.70    3.30
  -7   1  17   10.90    2.90
  -1  -6  17   12.50    2.60
  -6  -1 -17   10.60    2.60
  -1   7 -17    7.50    2.10
   6   1 -17   12.70    2.80
   7  -6 -17   11.00    2.90
   1  -7  17   13.90    2.70
  -6  -1  17    9.00    2.90
   1   6 -17    9.60    2.30
   7  -1 -17    5.60    2.60
  -7   1 -17    9.20    2.90
  -7   1 -17    8.80    2.80
  -7   6  17    9.20    3.80
  -1  -6 -17   15.00    3.30
   6  -7 -17   10.10    3.00
   0   0  18    7.40    2.20
   0   0 -18   10.10    2.00
  -1   0  18    5.20    2.30
  -1   1 -18    6.70    1.80
   0   1  18    3.40    2.10
   1   0  18    7.60    2.20
  -1   0 -18    8.70    2.10
   0   1 -18    4.30    1.90
   1  -1 -18    7.90    2.00
   0  -1 -18    7.40    1.80
   1   0 -18    4.60    2.00
   1  -1  18    4.70    2.10
  -1   1  18    2.60    2.10
   0  -1  18    3.90    2.00
  -1  -1 -18  678.33   36.60
   1  -2 -18  710.83   36.60
  -2   1 -18  624.34   36.80
  -1  -1  18  698.83   36.60
  -1   2  18  751.42   36.70
   1  -2  18  753.02   36.60
   2  -1 -18  701.03   36.60
  -2   1  18  710.83   36.70
   0   2 -18   11.00    2.00
   2  -2 -18   10.20    2.20
  -2   2 -18    9.30    2.10
   0  -2 -18    7.60    2.10
  -2   0 -18   13.50    2.50
   0  -2  18    8.90    2.60
  -2   2  18   14.30    2.70
  -2   0  18   13.60    2.60
   2  -2  18    9.50    2.30
   2   0 -18   13.20    2.60
  -3   1  18    5.30    2.50
  -1   3 -18    7.00    2.00
   3  -2 -18    6.20    1.90
  -2   3  18    6.90    2.40
  -3   2 -18    8.10    2.00
   2  -3  18    7.70    2.30
   2   1 -18    8.40    1.80
   1  -3 -18    9.30    2.10
  -2  -1 -18    7.20    1.90
   2  -3 -18    8.80    2.10
  -1  -2 -18   11.70    3.70
   3  -1 -18    5.20    1.90
  -2  -1  18    6.20    2.20
   1  -3  18    6.70    2.60
  -3   1 -18    9.10    2.00
  -2   3 -18   13.30    2.20
   1   2 -18    9.70    2.00
  -3   2  18   11.00    2.40
   0  -3  18  417.06   22.40
  -3   0  18  425.86   22.40
  -3   3  18  457.95   22.60
   3   0 -18  418.76   22.30
   3  -3 -18  431.96   22.40
  -3   0 -18  402.96   22.30
   0   3 -18  407.66   22.20
  -3   3 -18  433.66   22.30
   0  -3 -18  404.36   22.40
  -4   2  18    2.60    2.20
   4  -2 -18    4.70    2.20
   2   2 -18    3.80    1.80
  -2  -2 -18    6.30    2.00
  -4   2 -18    6.50    2.20
  -2   4 -18    5.50    1.90
   2  -4  18    6.30    2.30
   2  -4 -18    6.30    2.10
  -2  -2  18    4.30    1.90
   1  -4 -18    4.00    2.00
  -1   4 -18    3.60    1.80
  -1  -3  18    2.60    1.90
  -4   3 -18    6.20    2.10
   3   1 -18    2.60    1.80
  -3   4  18    4.00    2.50
   4  -3 -18    4.40    2.00
  -4   1  18    1.30    2.40
  -3  -1 -18    2.20    1.80
   4  -1 -18   -0.30    1.80
  -3  -1  18    4.00    2.00
   1   3 -18    1.30    1.80
  -1  -3 -18    3.40    2.10
  -4   1 -18    2.90    1.90
   1  -4  18    3.20    2.20
   3  -4 -18    3.40    2.20
  -4   3  18    4.00    2.50
  -3   4 -18    8.70    2.00
   4  -4 -18    6.50    2.50
   4   0 -18    5.00    2.00
  -4   4  18    7.70    2.60
   0   4 -18    5.70    1.90
  -4   0  18    0.90    2.20
   0  -4  18    4.40    2.40
   0  -4 -18    4.30    2.70
  -4   4 -18   10.20    2.10
  -4   0 -18    8.10    2.10
   3  -5  18   -2.10    2.10
  -2  -3  18   -0.20    1.90
   2  -5 -18   -0.20    2.10
  -5   2  18   -1.10    2.20
   5  -3 -18   -1.00    2.10
  -3  -2 -18    3.30    2.20
  -2   5 -18   -0.10    1.80
   3   2 -18    0.10    1.70
  -5   3 -18    3.80    2.10
   2  -5  18   -1.00    2.20
  -3  -2  18   -0.40    2.30
  -3   5 -18   -1.20    1.70
  -5   3  18   -3.60    2.40
   3  -5 -18    3.60    2.20
   2   3 -18   -1.70    1.70
   5  -2 -18   -3.20    2.00
  -5   2 -18    1.10    1.90
  -2  -3 -18    3.20    2.10
  -4  -1 -18  305.97   16.30
  -1   5 -18  300.17   16.00
  -1  -4  18  287.37   16.10
  -5   4 -18  294.87   16.10
   5  -4 -18  285.07   16.30
  -4   5  18  333.77   16.60
   4   1 -18  289.67   16.20
   1  -5 -18  297.17   16.40
  -4  -1  18  293.37   16.20
   1  -5  18  308.57   16.30
   5  -1 -18  300.77   16.30
  -1  -4 -18  291.17   16.30
  -5   4  18  322.47   16.60
   4  -5 -18  308.67   16.30
   1   4 -18  287.17   16.00
  -5   1 -18  289.77   16.20
  -4   5 -18  283.97   16.00
  -5   5 -18   10.50    2.10
   5   0 -18    5.00    2.30
   5  -5 -18    4.00    2.30
  -5   5  18    3.90    3.00
  -5   0  18    7.90    2.80
   0  -5 -18    7.50    2.50
   0   5 -18    6.30    2.10
   0  -5  18    8.30    2.40
  -5   0 -18    8.50    2.50
  -3  -3  18  283.07   15.60
  -6   3  18  291.37   16.00
   6  -3 -18  287.37   15.70
   3  -6  18  300.57   15.60
  -6   3 -18  275.27   15.60
   3  -6 -18  291.37   15.80
  -3  -3 -18  292.07   15.80
  -3   6 -18  280.97   15.30
   3   3 -18  278.17   15.60
   6  -4 -18   -1.00    2.30
  -2  -4  18    0.40    2.10
  -6   2  18    2.10    2.60
  -6   4 -18    3.10    2.30
   4   2 -18    1.60    2.30
   2  -6 -18    4.00    2.60
  -2   6 -18    4.30    1.90
  -4  -2 -18    3.50    2.30
   4  -6 -18   13.20    2.90
  -2  -4 -18   -1.20    2.40
  -4   6 -18    2.30    1.90
   2   4 -18    1.70    2.20
  -6   2 -18    1.60    2.30
   2  -6  18    1.30    2.40
  -4  -2  18    1.40    2.40
  -6   4  18    1.10    2.80
   6  -2 -18   -1.10    2.10
  -1  -5  18    3.10    2.30
  -6   5 -18    6.10    2.10
   5   1 -18    0.40    2.00
   1  -6 -18   11.00    4.40
  -5   6  18    1.00    3.10
  -1   6 -18    2.10    2.00
   6  -5 -18    5.30    2.80
  -5  -1 -18    3.50    2.50
  -6   1  18    2.00    2.40
  -5  -1  18    4.80    2.30
   1  -6  18    3.40    2.60
  -6   5  18    3.10    3.20
   5  -6 -18    3.50    2.50
  -1  -5 -18    2.90    2.30
   6  -1 -18    0.40    2.50
  -5   6 -18    2.30    2.00
   1   5 -18    1.80    1.90
  -6   1 -18    2.00    2.30
   6   0 -18    0.90    2.50
  -6   6 -18    9.10    2.10
  -6   0 -18    6.50    2.90
   0  -6  18    4.70    2.50
  -6   6  18    8.60    3.20
   0   6 -18    2.90    2.20
   6  -6 -18    5.80    2.80
  -6   0  18    8.30    2.90
   0  -6 -18    0.50    2.50
   4   3 -18    2.10    2.10
  -3  -4  18    6.90    2.50
  -4  -3 -18    1.30    2.40
  -7   4 -18    2.80    2.60
  -7   3  18    1.10    2.80
   3  -7 -18    9.50    2.80
  -3   7 -18    6.40    2.00
   7  -4 -18    1.60    2.70
  -3  -4 -18    3.20    2.90
   3   4 -18   -0.90    2.30
  -7   3 -18    5.50    2.60
   7  -3 -18    1.20    2.50
  -4  -3  18    2.80    2.40
   4  -7 -18    4.90    2.70
  -4   7 -18    0.80    1.90
   3  -7  18   -1.00    2.50
  -7   4  18    4.40    3.60
  -5  -2 -18   82.19    6.50
   7  -5 -18   82.99    6.20
   2  -7 -18   89.19    6.90
  -2   7 -18   86.09    5.50
   5   2 -18   69.19    6.00
  -7   5 -18   87.09    6.10
  -7   2  18   85.19    6.40
  -2  -5  18   78.19    5.90
  -7   5  18   88.49    7.00
  -5  -2  18   75.69    6.10
  -2  -5 -18   80.39    6.40
  -7   2 -18   63.79    6.20
   2   5 -18   66.99    5.70
   2  -7  18   88.89    6.20
   7  -2 -18   80.19    6.10
  -5   7 -18   80.59    5.30
   5  -7 -18   90.59    6.40
  -1   7 -18    3.80    2.20
   6   1 -18   -1.40    2.80
  -6   7  18   -9.20    3.20
   1  -7 -18   -0.30    3.20
  -7   1  18   -0.90    2.90
  -6  -1 -18   -1.10    2.90
   7  -6 -18    2.20    2.90
  -7   6 -18    7.80    2.30
  -1  -6  18    1.90    2.60
   1  -7  18    4.50    2.80
  -1  -6 -18   -0.40    3.10
  -7   6  18   -1.40    3.50
   7  -1 -18   -0.20    2.30
  -6  -1  18    0.90    2.50
  -7   1 -18   -1.20    2.60
  -7   1 -18    0.40    2.50
   1   6 -18   -3.40    2.00
   6  -7 -18    3.80    2.80
   0   0 -19    0.30    2.00
   0   0  19   -1.70    1.90
  -1   0  19   29.50    3.70
   1   0  19   33.30    3.70
   0   1 -19   30.10    3.40
   1  -1 -19   29.10    3.90
   0  -1  19   25.60    3.20
  -1   1 -19   34.70    3.50
  -1   0 -19   34.50    3.50
   1   0 -19   25.90    3.50
   1  -1  19   28.80    3.60
  -1   1  19   33.80    3.50
   0   1  19   28.90    3.80
  -2   1  19   -1.70    2.20
   1  -2 -19    1.20    1.70
  -1   2 -19    2.30    1.80
  -1  -1 -19    1.20    1.90
  -1   2  19    2.10    2.40
   1   1 -19    1.10    1.80
  -2   1 -19    3.10    1.80
   2  -2 -19   72.29    5.00
   0   2 -19   63.89    4.70
   2  -2  19   62.49    5.20
   2   0 -19   57.79    4.80
  -2   2 -19   67.99    4.80
  -2   0 -19   60.79    5.00
  -2   0  19   57.89    5.20
  -2   2  19   65.89    5.10
   0  -2  19   62.09    4.90
   2   1 -19   11.50    2.40
  -3   2 -19   16.10    2.30
  -2   3  19   15.80    2.90
  -1  -2  19   10.40    2.70
   2  -3  19   13.30    2.60
  -1   3 -19   13.80    2.30
  -3   1  19   11.70    2.60
   3  -2 -19   14.40    3.00
  -2  -1 -19    8.40    2.20
   1  -3 -19   18.20    2.70
  -2  -1  19   11.40    2.40
   1  -3  19   10.10    2.40
   1   2 -19   14.80    2.30
   2  -3 -19   15.20    2.30
  -3   2  19   12.10    2.70
  -1  -2 -19   11.80    2.60
  -3   1 -19   11.90    2.30
  -2   3 -19   14.90    2.30
   3  -1 -19   15.60    2.40
  -3   0 -19   13.10    2.30
  -3   3 -19   16.70    2.30
  -3   0  19   13.20    2.70
   0   3 -19   12.70    2.30
  -3   3  19   16.70    3.10
   0  -3 -19   14.10    2.80
   0  -3  19    8.80    2.60
   3   0 -19    9.30    2.30
   3  -3 -19   15.90    2.40
   2   2 -19   -0.90    1.80
  -4   2 -19    2.30    2.10
  -2   4 -19   -3.80    1.70
   2  -4 -19    3.90    2.30
  -2  -2 -19    0.90    1.90
   4  -2 -19   -0.30    2.00
  -2  -2  19    1.30    2.30
   2  -4  19   -1.00    2.20
  -4   2  19   -2.10    2.70
  -3  -1 -19   14.70    2.50
  -4   1  19   13.60    2.90
  -3   4  19   16.50    3.00
   1  -4 -19   19.70    3.10
  -4   3 -19   18.80    2.50
   4  -3 -19   16.20    2.70
  -1  -3  19   15.90    2.90
   3   1 -19   12.00    2.40
  -1   4 -19   11.10    2.30
  -3  -1  19   18.60    2.90
   1  -4  19   21.20    3.10
   1   3 -19   17.20    2.50
  -4   1 -19   17.80    2.60
   4  -1 -19   11.50    2.50
  -3   4 -19   25.70    3.10
   3  -4 -19   16.60    2.60
  -1  -3 -19   22.70    3.10
  -4   3  19   17.80    3.10
  -4   4 -19   39.50    3.80
  -4   0  19   34.00    4.20
  -4   0 -19   36.30    4.20
   4   0 -19   32.20    3.90
  -4   4  19   35.70    3.90
   0  -4  19   36.60    4.20
   4  -4 -19   37.20    4.20
   0   4 -19   35.80    3.80
   0  -4 -19   43.80    4.30
  -5   3 -19   21.60    2.90
  -2  -3  19   16.10    2.90
   3   2 -19   19.90    3.00
  -5   2  19   17.90    3.00
  -3  -2 -19   20.30    2.80
   2  -5 -19   24.00    3.10
  -2   5 -19   20.80    2.60
   5  -3 -19   20.50    2.90
   3  -5  19   18.60    2.90
  -2  -3 -19   21.70    3.20
   3  -5 -19   24.40    3.20
   2  -5  19   18.30    3.00
   5  -2 -19   16.40    3.10
   2   3 -19   16.70    2.60
  -5   3  19   20.60    3.60
  -5   2 -19   22.00    2.90
  -3  -2  19   16.20    2.70
  -3   5 -19   18.30    2.50
   1  -5 -19    8.80    2.80
  -1  -4  19    8.40    2.50
  -5   1  19   11.00    2.60
  -1   5 -19    6.40    2.20
  -5   4 -19   11.90    2.40
  -4  -1 -19    8.80    2.50
   4   1 -19    9.80    2.40
   5  -4 -19    7.70    2.50
  -4   5  19   12.00    2.90
   4  -5 -19   12.20    2.70
  -1  -4 -19   11.70    2.80
  -5   1 -19   10.50    2.50
   1  -5  19   12.50    2.80
  -4  -1  19    6.00    2.50
  -4   5 -19    8.50    2.20
  -5   4  19   14.00    3.40
   1   4 -19    8.30    2.30
   5  -1 -19   10.30    2.70
   5   0 -19    4.30    2.60
   0  -5  19    5.80    2.50
   0   5 -19    3.60    2.20
  -5   0 -19    3.20    2.40
   5  -5 -19    7.10    2.60
   0  -5 -19    4.60    2.70
  -5   0  19    4.30    2.40
  -5   5  19    5.80    3.00
  -5   5 -19    8.60    2.10
   3   3 -19    0.00    2.00
   6  -3 -19    4.00    2.50
   3  -6  19   -2.50    2.50
  -3  -3  19    4.50    2.70
  -3  -3 -19    3.40    2.80
   3  -6 -19    3.70    2.80
  -3   6 -19   -1.70    1.90
  -6   3  19   -1.00    2.70
  -6   3 -19   -0.50    2.40
   4   2 -19   12.50    2.60
  -2  -4  19   16.40    3.10
  -6   4 -19   19.40    3.00
   6  -4 -19   11.20    3.10
   2  -6 -19   22.70    3.80
  -4  -2 -19   18.60    3.10
  -6   2  19   18.30    3.30
  -2   6 -19   16.70    2.50
   2   4 -19   13.70    2.60
  -4   6 -19   16.30    2.40
  -6   2 -19   16.30    3.10
  -6   4  19   18.00    3.40
   6  -2 -19   13.70    3.00
  -2  -4 -19   17.90    3.20
   2  -6  19   12.90    2.90
  -4  -2  19   15.00    2.80
  -6   1  19    4.10    2.60
  -1  -5  19    7.30    2.60
   1  -6 -19    5.80    2.80
  -5   6  19    6.00    3.40
  -1   6 -19    2.40    2.20
  -6   5 -19    5.10    2.30
   6  -5 -19    3.50    2.60
   5   1 -19    3.20    2.50
  -5  -1 -19    1.70    2.70
   6  -1 -19    3.40    2.50
  -1  -5 -19    7.30    2.70
  -5  -1  19    2.00    2.70
   1   5 -19   -0.60    2.10
  -6   1 -19    5.30    2.70
   5  -6 -19    1.80    2.80
   1  -6  19    2.00    2.70
  -6   5  19    1.30    3.40
  -5   6 -19    3.90    2.10
  -6   6 -19    4.90    2.20
  -6   0  19    2.80    2.60
   0   6 -19    1.40    2.20
  -6   6  19   -5.00    3.30
  -6   0 -19    5.10    2.80
   6  -6 -19   -1.90    2.80
   6   0 -19   -0.50    2.40
   0  -6 -19    8.50    3.10
   0  -6  19    1.70    2.60
  -3   7 -19    1.10    2.10
  -3  -4  19    5.30    2.90
  -7   4 -19    8.70    2.90
  -4  -3 -19    1.30    3.00
   4   3 -19    5.00    2.70
   7  -4 -19    3.70    2.80
  -7   3  19   -0.80    3.40
   3  -7 -19   13.80    3.10
   7  -3 -19    3.30    2.70
   4  -7 -19    6.90    2.80
  -4  -3  19    2.70    2.70
   3   4 -19    1.00    2.40
  -4   7 -19   -0.40    2.10
  -7   4  19    6.20    3.60
  -3  -4 -19    0.80    2.80
   3  -7  19    0.80    2.70
  -7   3 -19    7.60    2.80
  -2   7 -19    5.80    2.40
  -7   5 -19   12.90    2.90
  -7   2  19    7.70    3.30
  -2  -5  19    3.70    2.70
   5   2 -19   10.50    3.20
   2  -7 -19   12.00    3.40
   7  -5 -19   10.80    3.10
  -5  -2 -19   10.20    3.30
  -2  -5 -19    3.50    3.30
   2   5 -19    4.40    2.60
  -5  -2  19    9.10    3.10
   2  -7  19    7.20    3.00
   5  -7 -19    7.90    3.00
   7  -2 -19    8.50    2.90
  -7   5  19    9.50    3.70
  -7   2 -19    5.60    2.90
  -5   7 -19   11.00    2.20
   0   0 -20  103.89    6.30
   0   0  20   87.99    7.10
   1   0 -20   14.70    2.60
   1  -1 -20   10.80    2.30
  -1   1  20    9.90    2.90
  -1   0 -20   15.30    2.50
  -1   1 -20   18.40    2.70
   1  -1  20    8.30    2.60
   0  -1  20   13.50    2.60
   0  -1 -20   15.10    2.30
  -1   0  20   12.50    2.80
   0   1 -20   19.50    2.50
   1  -2  20   36.30    4.00
  -1  -1 -20   35.70    4.10
  -1   2  20   34.20    4.20
   1   1 -20   38.20    3.80
  -1   2 -20   36.60    3.70
   2  -1 -20   32.60    3.90
   1  -2 -20   41.00    4.10
  -1  -1  20   33.00    4.10
  -2   1 -20   40.10    3.90
   0  -2  20  221.28   12.50
  -2   0  20  220.78   12.50
  -2   2  20  239.48   12.60
  -2   2 -20  231.28   12.40
   0  -2 -20  211.28   12.50
  -2   0 -20  208.68   12.40
   2  -2  20  232.78   12.40
   0   2 -20  217.98   12.30
   2   0 -20  208.28   12.40
   2  -2 -20  220.18   12.40
   3  -2 -20    3.40    2.00
   1  -3 -20    2.90    2.00
   2   1 -20    2.60    2.10
  -2  -1 -20    2.40    2.10
  -1  -2  20    4.50    2.50
  -1   3 -20    3.10    2.20
  -2   3  20    2.30    2.40
  -3   1  20    3.80    2.70
   2  -3  20    0.80    2.20
  -3   2 -20    4.20    2.00
   2  -3 -20    4.30    2.20
  -1  -2 -20    5.00    2.20
  -3   1 -20    5.00    2.20
   3  -1 -20    0.90    1.90
  -2   3 -20    5.80    2.10
   1   2 -20    2.60    1.80
   1  -3  20    1.10    2.40
  -3   2  20    0.10    2.80
  -2  -1  20    2.50    2.30
   3  -3 -20   26.60    3.10
   0   3 -20   22.30    2.90
  -3   3 -20   29.70    3.50
   3   0 -20   20.40    2.80
  -3   3  20   26.00    3.40
  -3   0 -20   18.10    2.80
  -3   0  20   23.30    3.30
   0  -3  20   23.20    3.10
   0  -3 -20   33.20    4.10
  -2  -2 -20   50.89    4.70
   4  -2 -20   47.30    4.60
  -4   2 -20   56.09    4.80
  -2   4 -20   47.60    4.30
   2  -4  20   53.99    4.70
   2   2 -20   43.10    4.50
  -2  -2  20   48.90    4.60
  -4   2  20   52.79    5.20
   2  -4 -20   59.49    5.30
   3   1 -20    4.30    2.60
  -4   3 -20    5.50    2.20
   1  -4 -20    6.80    2.40
  -3  -1 -20    9.20    2.60
  -1  -3  20    1.80    2.50
  -3   4  20    3.30    2.90
  -1   4 -20    4.10    2.10
   4  -3 -20    7.80    2.70
  -4   1  20    3.10    2.70
  -3  -1  20    2.80    2.70
   1  -4  20    1.80    2.50
  -1  -3 -20    7.60    2.60
   4  -1 -20    3.10    2.30
  -4   3  20    4.40    2.80
   1   3 -20    7.20    2.50
  -3   4 -20    8.30    2.20
  -4   1 -20    5.50    2.60
   0  -4  20  121.79    7.90
  -4   0 -20  119.19    7.80
  -4   4  20  128.39    8.20
   4  -4 -20  111.39    8.70
   4   0 -20  121.49    7.80
   0   4 -20  117.59    7.60
  -4   0  20  122.99    8.00
   0  -4 -20  126.09    8.00
  -4   4 -20  127.59    7.50
  -5   2  20   20.30    3.60
   3  -5  20   16.30    3.00
  -2   5 -20   23.70    2.80
   2  -5 -20   23.20    3.00
   5  -3 -20   14.80    3.10
  -5   3 -20   20.20    3.00
   3   2 -20   18.20    3.20
  -3  -2 -20   12.80    2.90
  -2  -3  20   14.60    2.80
   2  -5  20   19.30    3.10
   5  -2 -20   14.50    2.90
  -3   5 -20   17.80    2.60
  -5   3  20   20.10    3.50
  -5   2 -20   22.60    3.10
   2   3 -20   18.30    3.00
   3  -5 -20   25.90    4.90
  -2  -3 -20   16.80    3.20
  -3  -2  20   19.60    3.30
  -1  -4  20   17.00    3.10
   4   1 -20   19.90    3.10
   5  -4 -20   19.00    2.90
  -1   5 -20   16.70    2.70
  -5   4 -20   19.10    2.90
  -5   1  20   11.70    3.00
  -4   5  20   22.20    3.70
  -4  -1 -20   15.10    3.10
   1  -5 -20   17.40    3.20
  -1  -4 -20   18.80    3.00
   4  -5 -20   20.90    3.80
  -4   5 -20   21.40    2.70
  -5   1 -20   20.10    3.20
   1  -5  20   21.30    3.40
   1   4 -20   21.20    3.00
   5  -1 -20   16.60    2.90
  -4  -1  20   15.10    3.20
  -5   4  20   20.90    3.90
   5   0 -20    1.80    2.60
   0  -5  20    4.10    2.80
   0   5 -20   -0.90    2.20
  -5   0 -20    1.70    2.80
   5  -5 -20    2.80    5.20
  -5   0  20   -1.90    2.60
   0  -5 -20   -1.50    2.40
  -5   5 -20    6.50    2.20
  -5   5  20    5.70    3.30
   6  -3 -20   15.40    3.00
   3  -6  20   14.20    3.00
  -6   3  20   18.20    4.00
   3   3 -20   12.00    2.70
  -3  -3  20   16.10    2.90
  -3  -3 -20   17.40    3.20
  -3   6 -20   13.20    2.70
  -6   3 -20   17.70    3.20
   4   2 -20   56.79    5.30
   6  -4 -20   54.49    5.50
   2  -6 -20   72.59    5.90
  -2  -4  20   58.29    5.30
  -6   4 -20   74.09    5.60
  -2   6 -20   57.39    5.00
  -4  -2 -20   60.29    6.00
  -6   2  20   65.49    6.00
  -6   2 -20   57.09    5.50
   6  -2 -20   58.39    5.50
  -4   6 -20   57.39    4.80
   4  -6 -20   71.89    5.90
  -2  -4 -20   64.39    5.80
  -4  -2  20   60.69    5.50
  -6   4  20   74.49    6.40
   2   4 -20   59.89    5.20
   2  -6  20   63.49    5.50
  -6   5 -20    5.40    2.50
   6  -5 -20   -0.70    2.80
   5   1 -20   -2.40    2.40
  -6   1  20   -2.80    2.80
  -5  -1 -20    2.60    2.80
  -1  -5  20   -2.70    2.50
  -5   6  20   -5.00    3.10
  -1   6 -20   -1.70    2.40
   1  -6 -20   -1.80    3.00
   5  -6 -20    3.50    2.80
   1  -6  20    4.20    2.90
  -1  -5 -20    2.50    2.90
  -6   1 -20    6.20    3.10
  -5   6 -20    2.90    2.30
   6  -1 -20   -1.60    2.50
  -6   5  20   -1.70    3.60
   1   5 -20    0.90    2.50
  -5  -1  20   -3.10    2.70
   0   0  21   -1.70    2.20
   0   0 -21    0.50    1.90
   0  -1 -21   23.10    3.30
   1   0 -21   21.30    3.00
  -1   1 -21   28.50    3.60
   0   1  21   23.40    3.20
  -1   0 -21   30.10    3.70
  -1   1  21   19.90    3.20
   1  -1 -21   28.50    3.70
   0  -1  21   20.20    3.00
   1  -1  21   21.90    3.20
  -1   0  21   20.60    3.20
   0   1 -21   31.30    3.80
   1   1 -21    3.30    2.00
   1  -2 -21   -2.00    2.20
  -1   2 -21    3.70    2.10
  -1   2  21   -3.80    2.70
  -2   1  21   -3.40    2.60
  -1  -1 -21   -0.10    2.20
   1  -2  21    0.10    2.40
  -2   1 -21   -0.90    1.90
  -1  -1  21    3.80    2.50
   2  -1 -21    2.20    2.30
   0   2 -21  106.99    7.00
   0  -2  21  101.59    7.10
   2   0 -21  103.79    7.00
  -2   0  21  113.59    7.50
  -2   2  21  112.19    7.40
  -2   0 -21   98.89    7.20
  -2   2 -21  116.69    7.00
   2  -2 -21  111.79    7.10
   0  -2 -21  110.49    7.20
  -1  -2  21    8.80    2.80
  -3   1  21    7.50    3.00
   3  -2 -21   14.10    2.80
  -2   3  21    9.40    3.30
   2   1 -21    8.20    2.40
  -2  -1 -21   13.10    2.90
   1  -3 -21   13.10    2.60
  -3   2 -21    7.80    2.40
  -1   3 -21   12.90    2.40
   2  -3  21   13.20    2.70
   2  -3 -21   12.30    2.80
   1   2 -21   10.10    2.30
   3  -1 -21   10.10    2.50
  -3   2  21    9.40    3.00
  -2  -1  21    7.10    3.00
   1  -3  21    8.70    2.70
  -3   1 -21   10.00    2.60
  -1  -2 -21   10.30    2.80
   0  -3  21   -2.50    2.70
   0   3 -21    1.70    2.20
  -3   3 -21    1.80    2.10
  -3   3  21    2.50    2.80
  -3   0  21   -0.90    2.50
  -3   0 -21    0.60    2.30
   3  -3 -21    5.70    2.30
   0  -3 -21    0.90    2.30
   3   0 -21    0.20    2.10
  -2   4 -21    1.00    2.10
   2  -4 -21    1.70    2.30
  -4   2  21   -2.10    2.80
  -4   2 -21    2.60    2.30
   4  -2 -21   -0.70    2.30
  -2  -2  21    0.80    2.60
  -2  -2 -21   -0.50    2.30
   2  -4  21   -4.70    2.50
   2   2 -21   -3.70    2.20
  -3  -1 -21    6.40    2.80
   4  -3 -21    9.10    2.50
   1  -4 -21   12.70    2.90
  -4   1  21    6.40    2.80
  -1   4 -21    8.10    2.50
   3   1 -21    7.10    2.50
  -1  -3  21   10.50    3.00
  -4   3 -21   13.70    2.80
  -4   3  21    6.90    3.30
   3  -4 -21   13.30    2.60
  -3   4 -21   11.80    2.50
   1   3 -21    7.20    2.40
  -4   1 -21   10.10    2.90
  -3  -1  21   10.10    3.00
   1  -4  21    7.40    2.80
   4  -1 -21    7.40    2.80
  -1  -3 -21    6.20    2.60
  -4   0 -21   58.09    5.40
   0   4 -21   54.09    5.00
   4  -4 -21   66.89    5.40
   4   0 -21   53.59    5.30
  -4   4 -21   68.89    5.00
   0  -4  21   65.69    5.60
  -4   4  21   52.19    6.90
   0  -4 -21   63.29    5.90
  -4   0  21   59.39    5.60
  -5   3 -21   18.80    3.10
   3   2 -21   13.30    3.20
   2  -5 -21   30.50    3.70
   5  -3 -21   21.80    3.40
  -5   2  21   17.10    3.60
  -3  -2 -21   16.70    3.30
  -2   5 -21   18.00    2.80
  -2  -3  21   13.70    3.20
   3  -5  21   15.80    3.20
  -3  -2  21   16.00    3.00
   5  -2 -21   16.90    3.40
  -5   2 -21   20.20    3.20
  -3   5 -21   15.90    2.80
  -2  -3 -21   15.90    3.50
   2   3 -21   15.50    3.00
  -5   3  21   15.40    3.60
   2  -5  21   18.20    3.20
  -4   5  21   -0.70    4.70
  -5   1  21    2.60    2.80
  -4  -1 -21   -2.90    2.90
  -1   5 -21   -2.30    2.20
   4   1 -21   -0.60    2.40
   1  -5 -21    2.00    2.80
   5  -4 -21   -1.00    2.50
  -1  -4  21   -1.30    2.60
  -5   4 -21    4.40    2.40
  -5   4  21   -0.70    3.20
  -5   1 -21    2.50    2.70
   4  -5 -21    2.60    2.70
   1  -5  21   -0.10    2.80
   5  -1 -21    0.20    2.50
   1   4 -21    5.30    2.70
  -4  -1  21    4.70    2.70
  -1  -4 -21   -1.80    2.70
  -4   5 -21    5.00    2.30
   0   5 -21    4.90    2.60
   5  -5 -21   12.80    2.80
  -5   0 -21    2.50    2.70
  -5   0  21    8.00    3.10
   0  -5  21    7.00    3.30
  -5   5  21    6.60    5.70
   0  -5 -21    8.70    3.30
  -5   5 -21    9.80    2.50
   5   0 -21    5.90    3.20
  -3  -3  21   -3.70    2.80
   3  -6 -21    7.50    3.10
  -3   6 -21   -2.70    2.40
  -3  -3 -21   -0.10    2.90
   3   3 -21   -1.30    2.60
  -6   3  21   -1.30    3.20
   6  -3 -21   -4.90    2.90
  -6   3 -21    4.60    2.90
   3  -6  21   -4.50    2.80
  -2   6 -21   23.50    3.40
   6  -4 -21   31.20    4.10
  -6   4 -21   38.50    4.80
  -2  -4  21   24.40    3.70
   2  -6 -21   43.20    5.20
  -4  -2 -21   30.30    4.40
   4   2 -21   35.30    4.00
  -6   2  21   33.30    4.20
  -4  -2  21   27.10    3.60
   4  -6 -21   48.40    5.20
   2   4 -21   23.70    3.30
  -4   6 -21   30.00    3.90
   6  -2 -21   27.50    3.70
  -6   4  21   34.60    4.50
   2  -6  21   32.70    3.90
  -6   2 -21   29.10    4.00
  -2  -4 -21   35.40    4.40
   0   0 -22   82.69    5.70
   0   0  22   71.39    5.90
  -1   0  22  169.88   10.10
  -1   1 -22  169.28    9.90
   0  -1  22  162.98   10.00
   1  -1 -22  167.68   10.00
   1   0 -22  166.88   10.00
   0  -1 -22  166.48   10.10
   0   1  22  167.28   10.20
   1  -1  22  179.98   10.20
  -1   1  22  169.58   10.10
  -1   0 -22  168.98   10.10
   0   1 -22  161.08   10.00
  -1  -1  22    3.40    2.70
   2  -1 -22   10.10    2.70
  -1  -1 -22    8.30    2.80
   1  -2  22    7.20    2.60
  -2   1  22    5.70    2.80
  -1   2  22    6.10    2.90
   1  -2 -22    8.80    2.70
   1   1 -22    9.30    2.70
  -1   2 -22    9.80    2.60
  -2   1 -22   11.70    2.60
   2   0 -22   12.60    2.60
   0   2 -22   10.90    2.80
  -2   0 -22   14.50    3.00
  -2   2 -22   15.60    2.50
   0  -2 -22   12.30    2.70
  -2   0  22   11.20    3.10
  -2   2  22    9.90    3.00
   0  -2  22   10.10    3.10
   2  -2 -22   15.20    3.00
   3  -2 -22   95.29    6.40
  -3   1  22   85.19    6.80
   2  -3  22   84.79    6.50
  -1   3 -22   81.79    6.10
  -2   3  22   83.89    6.80
   2   1 -22   80.59    6.20
  -2  -1 -22   80.09    6.60
  -1  -2  22   79.89    6.50
  -3   2 -22   88.29    6.30
   1  -3 -22   88.39    6.60
   3  -1 -22   85.29    6.20
  -2  -1  22   84.39    6.70
  -3   1 -22   83.49    6.40
   1  -3  22   84.09    6.40
   2  -3 -22   95.39    6.20
  -1  -2 -22   78.89    6.60
  -3   2  22   93.09    6.70
   1   2 -22   83.49    6.20
  -2   3 -22   91.29    6.20
   0  -3 -22    9.00    2.70
  -3   0 -22    7.40    2.90
   3   0 -22    8.80    2.70
  -3   0  22    4.40    3.30
   0  -3  22    5.30    2.80
   3  -3 -22   12.10    2.80
  -3   3  22    5.80    3.10
   0   3 -22    5.70    2.50
  -3   3 -22    7.70    2.40
   2  -4 -22   40.80    4.90
   2  -4  22   42.90    4.70
   4  -2 -22   47.50    4.70
  -2   4 -22   43.10    4.40
   2   2 -22   40.40    4.70
  -4   2  22   37.40    4.50
  -2  -2  22   40.10    5.10
  -2  -2 -22   38.50    5.00
  -4   2 -22   37.50    4.80
  -1   4 -22   97.49    7.00
  -4   1  22   99.79    7.70
  -3  -1 -22  109.29    7.50
  -1  -3  22   94.29    7.40
  -4   3 -22  110.69    7.20
   3   1 -22  100.29    7.20
   1  -4 -22  106.09    7.40
   4  -3 -22  108.19    7.30
  -3   4  22  106.29    7.70
   3  -4 -22  109.99    7.30
   1  -4  22  112.69    7.40
   4  -1 -22  101.19    7.20
  -3  -1  22   99.59    7.50
   1   3 -22  109.89    7.20
  -4   1 -22  104.49    7.40
  -1  -3 -22  101.99    7.50
  -4   3  22  118.39    7.80
  -3   4 -22   93.99    6.90
  -4   0 -22   12.00    3.30
   4   0 -22   10.90    3.00
  -4   4  22   15.90    3.90
   0  -4  22   11.70    3.50
   0   4 -22   13.20    3.10
   4  -4 -22   16.60    3.30
  -4   4 -22   14.60    2.70
   0  -4 -22    9.90    3.20
  -4   0  22   10.80    3.20
  -3  -2 -22   82.39    7.00
  -2   5 -22   83.19    6.40
   2  -5 -22  101.79    7.20
  -2  -3  22   91.69    7.00
   3   2 -22   84.29    6.70
   5  -3 -22   96.19    6.90
  -5   2  22   92.19    7.50
  -5   3 -22  100.79    6.90
  -5   3  22   99.39    7.80
  -3  -2  22  101.09    7.10
   2  -5  22   95.09    6.80
   2   3 -22   86.89    6.70
  -3   5 -22   84.39    6.30
   3  -5 -22   97.99    6.80
  -5   2 -22   81.89    7.00
   5  -2 -22   84.49    7.00
  -2  -3 -22   89.59    7.30
  -4   5  22    2.60    3.80
  -4  -1 -22    6.70    3.20
  -5   4 -22    6.20    2.70
   1  -5 -22    5.60    3.10
   5  -4 -22    4.90    3.10
  -5   1  22    0.90    3.40
  -1   5 -22    1.20    2.60
  -1  -4  22    4.70    3.10
   4   1 -22   -0.50    2.90
   5  -1 -22    7.60    3.10
   1  -5  22    4.90    3.10
   4  -5 -22    4.80    3.10
  -5   1 -22    4.20    2.80
  -1  -4 -22    9.00    3.60
  -5   4  22    0.60    3.70
  -4   5 -22    8.70    2.60
   1   4 -22    2.40    2.70
  -4  -1  22    5.10    2.90
   0  -5  22   22.30    4.00
   0   0  23   -1.50    2.70
   0   0 -23    4.70    2.30
  -1   1  23   83.69    6.60
   1  -1  23   88.09    6.70
   1  -1 -23   91.49    6.40
   0  -1 -23   92.59    6.50
   0   1  23   81.09    6.80
   0  -1  23   83.39    6.60
   1   0 -23   86.89    6.40
   0   1 -23   97.89    6.50
  -1   1 -23   84.99    6.20
  -1   0 -23   80.29    6.70
  -1   0  23   81.49    6.70
  -1   2  23   -3.00    3.00
  -1   2 -23    2.60    2.40
   1   1 -23   -0.90    2.60
   1  -2 -23    4.70    2.40
  -1  -1  23    0.40    2.80
   2  -1 -23    2.20    2.40
  -2   1  23   -1.20    2.70
  -2   1 -23    1.50    2.70
  -1  -1 -23    2.40    2.80
   1  -2  23    2.50    2.70
   2  -2 -23   28.50    3.50
   2   0 -23   34.80    4.40
  -2   2 -23   30.60    4.00
   0  -2 -23   34.00    4.00
  -2   0 -23   27.30    3.70
  -2   2  23   27.60    3.90
   0  -2  23   22.10    3.80
   0   2 -23   30.40    3.70
  -2   0  23   29.00    3.80
  -1   3 -23   44.00    4.70
  -3   2 -23   64.09    5.30
   2  -3  23   49.99    5.30
  -1  -2  23   47.60    5.60
   2   1 -23   48.70    5.00
  -3   1  23   45.20    5.70
  -2   3  23   43.50    5.60
   1  -3 -23   49.70    5.30
   3  -2 -23   45.90    5.10
  -2  -1 -23   48.60    5.60
  -2  -1  23   46.60    5.60
   1  -3  23   45.80    5.20
   3  -1 -23   37.20    5.00
   2  -3 -23   57.39    5.20
  -3   2  23   52.49    5.70
   1   2 -23   43.80    4.90
  -1  -2 -23   57.29    5.60
  -3   1 -23   50.99    5.30
  -2   3 -23   49.00    4.80
   0  -3 -23    1.10    2.70
   0  -3  23   -0.80    2.90
  -3   0  23    3.80    3.20
   3  -3 -23    3.00    2.70
   0   3 -23    2.10    2.30
   3   0 -23    2.20    2.60
  -3   3  23    1.00    3.20
  -3   0 -23    6.00    2.90
  -3   3 -23    5.50    2.50
   4  -2 -23    2.20    2.60
  -2  -2 -23    7.80    3.40
   2   2 -23    2.30    2.90
  -2  -2  23    1.40    3.50
  -4   2  23    4.50    3.70
  -4   2 -23    8.30    2.80
  -2   4 -23    1.90    2.60
   2  -4  23    0.20    3.00
  -1  -3  23   50.79    5.90
  -3  -1 -23   59.39    5.90
   1  -4 -23   59.99    6.00
  -4   3 -23   66.59    5.70
  -4   1  23   50.09    6.40
   3   1 -23   56.49    5.60
  -1   4 -23   59.69    5.20
  -3   4  23   55.09    6.30
   4  -3 -23   54.69    5.70
   4  -1 -23   56.39    5.60
  -3   4 -23   61.99    5.30
   3  -4 -23   71.19    5.70
  -4   3  23   68.69    6.50
   1  -4  23   57.29    5.80
  -4   1 -23   59.49    6.00
   1   3 -23   51.59    5.50
  -3  -1  23   62.89    6.20
  -1  -3 -23   57.69    6.30
  -4   4 -23   19.60    3.10
   0  -4  23   16.00    3.60
   0  -4 -23   24.10    3.90
   4  -4 -23   25.30    3.80
  -4   0 -23   23.30    4.10
   4   0 -23   20.70    3.60
  -4   4  23   19.50    4.10
   0   4 -23   22.50    3.50
  -4   0  23   17.90    4.10
   3   2 -23   45.40    5.40
  -5   2  23   49.20    6.40
  -2   5 -23   42.10    4.90
  -3  -2 -23   39.70    4.90
   2  -5 -23   55.29    5.90
  -5   3 -23   54.59    5.50
  -2  -3  23   52.19    5.90
   5  -3 -23   50.59    5.60
  -5   3  23   51.89    6.50
  -5   2 -23   43.40    5.90
  -3  -2  23   54.19    5.90
   2   3 -23   46.60    5.30
  -2  -3 -23   52.89    6.10
  -3   5 -23   44.50    4.80
   2  -5  23   44.10    5.50
   3  -5 -23   58.19    5.80
   5  -2 -23   35.60    4.60
   0   0 -24  355.26   19.80
   0   0  24  374.16   20.00
   1  -1  24   -1.90    3.00
   0  -1  24   -4.30    2.70
   0   1 -24    5.20    2.90
   1  -1 -24    7.40    2.70
  -1   0 -24    0.50    2.50
   1   0 -24    0.00    2.70
   0  -1 -24    3.80    2.60
  -1   0  24    1.00    3.20
  -1   1 -24    4.00    2.50
  -1   1  24    3.50    2.90
  -2   1  24   63.89    6.20
  -1  -1  24   61.49    6.20
  -1   2  24   64.59    6.30
   1  -2  24   62.99    5.90
   1  -2 -24   72.59    6.00
   1   1 -24   76.19    5.90
  -1  -1 -24   66.29    6.10
  -2   1 -24   69.99    6.10
  -1   2 -24   69.99    5.80
   2  -1 -24   78.99    6.00
  -2   0  24   10.60    3.40
   2  -2 -24   13.00    3.40
   0  -2 -24   10.20    2.90
   2   0 -24   17.10    3.40
  -2   0 -24   15.40    3.10
   0   2 -24   15.10    3.30
   0  -2  24   12.10    3.30
  -2   2 -24   14.70    3.10
  -2   2  24   12.70    3.60
  -3   1  24   -0.10    3.30
  -1   3 -24    2.20    2.50
   1  -3 -24    4.90    2.80
   3  -2 -24    5.80    3.30
  -2   3  24   -4.50    3.50
  -1  -2  24   -2.00    3.30
  -3   2 -24    4.60    2.60
  -2  -1 -24    7.30    3.00
   2  -3  24   -1.90    3.10
   2   1 -24    2.70    2.60
  -2   3 -24    3.00    2.60
  -2  -1  24    1.90    3.40
   1   2 -24    0.30    2.50
   1  -3  24   -2.90    3.00
  -3   1 -24    6.90    3.00
   2  -3 -24    5.10    2.90
  -1  -2 -24    2.60    3.20
   3  -1 -24    2.20    2.70
  -3   2  24   -2.70    3.20
  -3   0 -24   54.29    6.10
  -3   3  24   57.79    6.20
   3  -3 -24   67.49    6.00
   0   3 -24   58.29    5.50
   0  -3 -24   64.99    6.10
  -3   0  24   59.69    6.50
   3   0 -24   59.49    5.80
  -3   3 -24   63.29    5.40
   0  -3  24   58.19    5.90
  -2  -2  24  198.08   12.40
  -4   2  24  210.08   12.50
   2  -4  24  219.88   12.10
   4  -2 -24  198.98   12.00
  -4   2 -24  190.68   11.90
   2  -4 -24  206.88   12.00
   2   2 -24  193.98   12.00
  -2   4 -24  184.18   11.70
  -2  -2 -24  206.58   12.50
  -3  -1 -24    2.50    3.10
  -3   4  24    5.40    3.70
   1  -4 -24    5.10    3.00
  -4   1  24    3.50    3.80
  -1   4 -24    3.30    2.90
  -4   3 -24    6.10    2.90
   4  -3 -24   -2.40    2.80
  -1  -3  24   -2.60    3.30
   3   1 -24    0.10    3.30
  -3  -1  24   -4.50    3.30
  -4   3  24   -5.40    3.70
  -3   4 -24    5.30    2.70
   1   3 -24    0.10    3.10
   3  -4 -24    9.10    3.20
  -4   1 -24    4.30    3.20
  -1  -3 -24   -1.00    3.20
   4  -1 -24   -0.60    2.90
   1  -4  24   -1.70    3.20
   0   0 -25    3.60    2.60
   0   0  25   -0.60    3.20
   1   0 -25   10.10    2.90
  -1   0  25   -2.10    3.10
   0   1 -25    7.30    2.80
  -1   1 -25   10.30    2.90
   0  -1 -25    7.20    2.80
  -1   1  25    4.50    3.20
   0  -1  25   -0.50    3.30
  -1   0 -25   10.60    3.20
   1  -1 -25    4.70    2.70
   1  -1  25   -0.90    3.20
  -1  -1  25    2.60    3.30
   1  -2  25   -6.00    3.10
   2  -1 -25    5.70    3.10
   1   1 -25    1.00    3.00
  -1   2  25    0.40    3.30
  -2   1  25   -0.20    3.30
   1  -2 -25    8.00    2.80
  -2   1 -25    4.10    2.80
  -1  -1 -25    5.60    2.80
  -1   2 -25    4.50    2.90
  -2   0  25   -1.70    3.30
  -2   2 -25    6.90    2.70
   0  -2 -25    5.30    2.90
  -2   0 -25    3.80    2.80
  -2   2  25   -4.10    3.40
   0  -2  25   -1.20    3.10
   0   2 -25    6.10    3.00
   2  -2 -25    8.70    3.10
   2   0 -25    2.70    3.40
   2   1 -25    8.00    3.30
   1  -3 -25    9.50    3.50
   3  -2 -25    8.10    3.40
  -3   1  25    2.80    3.50
   2  -3  25    2.70    3.50
  -1   3 -25    4.90    2.80
  -3   2 -25    9.50    2.90
  -2   3  25   -0.40    3.50
  -1  -2  25    3.00    3.70
  -2  -1 -25    9.20    3.50
   1  -3  25    0.50    3.20
   1   2 -25   11.20    3.10
  -2   3 -25   10.10    3.00
   2  -3 -25    7.90    3.20
  -3   2  25    5.60    4.00
  -3   1 -25    8.00    3.20
  -2  -1  25    4.00    3.90
   3  -1 -25    5.50    3.00
  -1  -2 -25    9.20    3.60
   0   0  26    9.50    3.50
   0   0 -26   11.80    3.10
   1   0 -26    9.70    3.40
  -1   1 -26   15.70    3.40
   0  -1 -26   11.50    3.50
  -1   0  26   11.70    3.90
  -1   0 -26   14.50    3.30
  -1   1  26    8.50    3.60
   0  -1  26   10.60    3.60
   0   1 -26   13.50    3.20
   1  -1 -26   20.30    3.30

_computing_structure_solution     'SHELXT 2014/4 (Sheldrick, 2014)'
;
_shelx_hkl_checksum               26214
_olex2_submission_special_instructions 'No special instructions were received'
