 
data_shelxl
 
_audit_creation_method            'SHELXL-2016/4'
_shelx_SHELXL_version_number      '2016/4'
_chemical_name_systematic         ?
_chemical_name_common             ?
_chemical_melting_point           ?
_chemical_formula_moiety          ?
_chemical_formula_sum
 'C H0 I3 N2 Pb' 
_chemical_formula_weight          627.92

loop_
 _atom_type_symbol
 _atom_type_description
 _atom_type_scat_dispersion_real
 _atom_type_scat_dispersion_imag
 _atom_type_scat_source
 'C'  'C'   0.0033   0.0016
 'International Tables Vol C Tables 4.2.6.8 and 6.1.1.4'
 'H'  'H'   0.0000   0.0000
 'International Tables Vol C Tables 4.2.6.8 and 6.1.1.4'
 'I'  'I'  -0.4742   1.8119
 'International Tables Vol C Tables 4.2.6.8 and 6.1.1.4'
 'N'  'N'   0.0061   0.0033
 'International Tables Vol C Tables 4.2.6.8 and 6.1.1.4'
 'Pb'  'Pb'  -3.3944  10.1111
 'International Tables Vol C Tables 4.2.6.8 and 6.1.1.4'
 
_space_group_crystal_system       hexagonal
_space_group_IT_number            194
_space_group_name_H-M_alt         'P 63/m m c'
_space_group_name_Hall            '-P 6c 2c'
 
_shelx_space_group_comment
;
The symmetry employed for this shelxl refinement is uniquely defined
by the following loop, which should always be used as a source of
symmetry information in preference to the above space-group names.
They are only intended as comments.
;
 
loop_
 _space_group_symop_operation_xyz
 'x, y, z'
 '-y, x-y, z'
 '-x+y, -x, z'
 '-x, -y, z+1/2'
 'y, -x+y, z+1/2'
 'x-y, x, z+1/2'
 'y, x, -z'
 'x-y, -y, -z'
 '-x, -x+y, -z'
 '-y, -x, -z+1/2'
 '-x+y, y, -z+1/2'
 'x, x-y, -z+1/2'
 '-x, -y, -z'
 'y, -x+y, -z'
 'x-y, x, -z'
 'x, y, -z-1/2'
 '-y, x-y, -z-1/2'
 '-x+y, -x, -z-1/2'
 '-y, -x, z'
 '-x+y, y, z'
 'x, x-y, z'
 'y, x, z-1/2'
 'x-y, -y, z-1/2'
 '-x, -x+y, z-1/2'
 
_cell_length_a                    8.6667(6)
_cell_length_b                    8.6667(6)
_cell_length_c                    7.9077(6)
_cell_angle_alpha                 90
_cell_angle_beta                  90
_cell_angle_gamma                 120
_cell_volume                      514.38(8)
_cell_formula_units_Z             2
_cell_measurement_temperature     298(2)
_cell_measurement_reflns_used     5931
_cell_measurement_theta_min       2.7
_cell_measurement_theta_max       26.3
 
_exptl_crystal_description        needle
_exptl_crystal_colour             yellow
_exptl_crystal_density_meas       ?
_exptl_crystal_density_method     ?
_exptl_crystal_density_diffrn     4.054          
_exptl_crystal_F_000              522
_exptl_transmission_factor_min    0.64
_exptl_transmission_factor_max    1
_exptl_crystal_size_max           ?
_exptl_crystal_size_mid           ?
_exptl_crystal_size_min           ?
_exptl_absorpt_coefficient_mu     25.328
_shelx_estimated_absorpt_T_min    ?
_shelx_estimated_absorpt_T_max    ?
_exptl_absorpt_correction_type    Multi-scan
_exptl_absorpt_correction_T_min   ?
_exptl_absorpt_correction_T_max   ?
_exptl_absorpt_process_details    ?
_exptl_absorpt_special_details    ?
_diffrn_ambient_temperature       298(2)
_diffrn_radiation_wavelength      0.71073
_diffrn_radiation_type            MoK\a
_diffrn_radiation_source          'fine-focus sealed tube' 
_diffrn_radiation_monochromator   graphite 
_diffrn_measurement_device_type   'Bruker APEX-II CCD'
_diffrn_measurement_method        '\f and \w scans'
_diffrn_detector_area_resol_mean  ?
_diffrn_reflns_number             5931
_diffrn_reflns_av_unetI/netI      0.0079
_diffrn_reflns_av_R_equivalents   0.0253
_diffrn_reflns_limit_h_min        -10
_diffrn_reflns_limit_h_max        10
_diffrn_reflns_limit_k_min        -10
_diffrn_reflns_limit_k_max        10
_diffrn_reflns_limit_l_min        -9
_diffrn_reflns_limit_l_max        9
_diffrn_reflns_theta_min          2.714
_diffrn_reflns_theta_max          26.305
_diffrn_reflns_theta_full         25.000
_diffrn_measured_fraction_theta_max   1.000
_diffrn_measured_fraction_theta_full  1.000
_diffrn_reflns_Laue_measured_fraction_max    1.000
_diffrn_reflns_Laue_measured_fraction_full   1.000
_diffrn_reflns_point_group_measured_fraction_max   1.000
_diffrn_reflns_point_group_measured_fraction_full  1.000
_reflns_number_total              229
_reflns_number_gt                 204
_reflns_threshold_expression      'I > 2\s(I)'
_reflns_Friedel_coverage          0.000
_reflns_Friedel_fraction_max      .
_reflns_Friedel_fraction_full     .
 
_reflns_special_details
;
 Reflections were merged by SHELXL according to the crystal
 class for the calculation of statistics and refinement.
 
 _reflns_Friedel_fraction is defined as the number of unique
 Friedel pairs measured divided by the number that would be
 possible theoretically, ignoring centric projections and
 systematic absences.
;
 
_computing_data_collection        ?
_computing_cell_refinement        ?
_computing_data_reduction         ?
_computing_structure_solution     'SHELXT 2014/5 (Sheldrick, 2014)'
_computing_structure_refinement 'SHELXL-2016/4 (Sheldrick, 2016)'
_computing_molecular_graphics     ?
_computing_publication_material   ?
_refine_special_details           ?
_refine_ls_structure_factor_coef  Fsqd
_refine_ls_matrix_type            full
_refine_ls_weighting_scheme       calc
_refine_ls_weighting_details
'w=1/[\s^2^(Fo^2^)+(0.0092P)^2^+0.9285P] where P=(Fo^2^+2Fc^2^)/3'
_atom_sites_solution_primary      ?
_atom_sites_solution_secondary    ?
_atom_sites_solution_hydrogens    .
_refine_ls_hydrogen_treatment     undef
_refine_ls_extinction_method      'SHELXL-2016/4 (Sheldrick 2016)'
_refine_ls_extinction_coef        0.0019(3)
_refine_ls_extinction_expression
 'Fc^*^=kFc[1+0.001xFc^2^\l^3^/sin(2\q)]^-1/4^'
_refine_ls_number_reflns          229
_refine_ls_number_parameters      16
_refine_ls_number_restraints      1
_refine_ls_R_factor_all           0.0202
_refine_ls_R_factor_gt            0.0159
_refine_ls_wR_factor_ref          0.0355
_refine_ls_wR_factor_gt           0.0345
_refine_ls_goodness_of_fit_ref    1.399
_refine_ls_restrained_S_all       1.602
_refine_ls_shift/su_max           0.000
_refine_ls_shift/su_mean          0.000
 
loop_
 _atom_site_label
 _atom_site_type_symbol
 _atom_site_fract_x
 _atom_site_fract_y
 _atom_site_fract_z
 _atom_site_U_iso_or_equiv
 _atom_site_adp_type
 _atom_site_occupancy
 _atom_site_site_symmetry_order  
 _atom_site_calc_flag
 _atom_site_refinement_flags_posn
 _atom_site_refinement_flags_adp
 _atom_site_refinement_flags_occupancy
 _atom_site_disorder_assembly
 _atom_site_disorder_group
PB01 Pb 0.000000 0.000000 0.500000 0.0485(2) Uani 1 12 d S T P . .
I002 I 0.33799(8) 0.16900(4) 0.750000 0.0709(3) Uani 1 4 d S T P . .
C1 C 0.666667 0.333333 1.250000 0.148(12) Uani 1 12 d DS T P . .
N2 N 0.6306(15) 0.261(3) 1.103(2) 0.111(10) Uani 0.3332 2 d DS T P . .
 
loop_
 _atom_site_aniso_label
 _atom_site_aniso_U_11
 _atom_site_aniso_U_22
 _atom_site_aniso_U_33
 _atom_site_aniso_U_23
 _atom_site_aniso_U_13
 _atom_site_aniso_U_12
PB01 0.0480(3) 0.0480(3) 0.0496(3) 0.000 0.000 0.02400(13)
I002 0.0375(3) 0.0809(4) 0.0799(5) 0.000 0.000 0.01873(17)
C1 0.13(2) 0.13(2) 0.18(4) 0.000 0.000 0.066(10)
N2 0.115(15) 0.11(2) 0.103(13) 0.017(14) 0.009(7) 0.057(11)
 
_geom_special_details
;
 All esds (except the esd in the dihedral angle between two l.s. planes)
 are estimated using the full covariance matrix.  The cell esds are taken
 into account individually in the estimation of esds in distances, angles
 and torsion angles; correlations between esds in cell parameters are only
 used when they are defined by crystal symmetry.  An approximate (isotropic)
 treatment of cell esds is used for estimating esds involving l.s. planes.
;
 
loop_
 _geom_bond_atom_site_label_1
 _geom_bond_atom_site_label_2
 _geom_bond_distance
 _geom_bond_site_symmetry_2
 _geom_bond_publ_flag
PB01 I002 3.2162(5) . ?
PB01 I002 3.2162(5) 13_556 ?
PB01 I002 3.2162(5) 14_556 ?
PB01 I002 3.2162(5) 2 ?
PB01 I002 3.2162(5) 15_556 ?
PB01 I002 3.2162(5) 3 ?
I002 PB01 3.2162(5) 4 ?
C1 N2 1.279(15) . ?
C1 N2 1.279(15) 17_658 ?
C1 N2 1.279(15) 2_655 ?
C1 N2 1.279(15) 16_558 ?
C1 N2 1.279(15) 3_665 ?
C1 N2 1.279(15) 18_668 ?
N2 N2 0.94(4) 2_655 ?
N2 N2 0.94(4) 3_665 ?
 
loop_
 _geom_angle_atom_site_label_1
 _geom_angle_atom_site_label_2
 _geom_angle_atom_site_label_3
 _geom_angle
 _geom_angle_site_symmetry_1
 _geom_angle_site_symmetry_3
 _geom_angle_publ_flag
I002 PB01 I002 180.0 . 13_556 ?
I002 PB01 I002 93.827(10) . 14_556 ?
I002 PB01 I002 86.173(10) 13_556 14_556 ?
I002 PB01 I002 86.173(10) . 2 ?
I002 PB01 I002 93.827(10) 13_556 2 ?
I002 PB01 I002 180.0 14_556 2 ?
I002 PB01 I002 93.827(11) . 15_556 ?
I002 PB01 I002 86.173(10) 13_556 15_556 ?
I002 PB01 I002 86.173(10) 14_556 15_556 ?
I002 PB01 I002 93.827(10) 2 15_556 ?
I002 PB01 I002 86.173(11) . 3 ?
I002 PB01 I002 93.827(11) 13_556 3 ?
I002 PB01 I002 93.827(10) 14_556 3 ?
I002 PB01 I002 86.173(10) 2 3 ?
I002 PB01 I002 180.000(18) 15_556 3 ?
PB01 I002 PB01 75.858(14) . 4 ?
N2 C1 N2 155.6(9) . 17_658 ?
N2 C1 N2 43.0(17) . 2_655 ?
N2 C1 N2 130(2) 17_658 2_655 ?
N2 C1 N2 130(2) . 16_558 ?
N2 C1 N2 43.0(17) 17_658 16_558 ?
N2 C1 N2 155.6(9) 2_655 16_558 ?
N2 C1 N2 43.0(17) . 3_665 ?
N2 C1 N2 155.6(9) 17_658 3_665 ?
N2 C1 N2 43.0(17) 2_655 3_665 ?
N2 C1 N2 155.6(10) 16_558 3_665 ?
N2 C1 N2 155.6(10) . 18_668 ?
N2 C1 N2 43.0(17) 17_658 18_668 ?
N2 C1 N2 155.6(9) 2_655 18_668 ?
N2 C1 N2 43.0(17) 16_558 18_668 ?
N2 C1 N2 130(2) 3_665 18_668 ?
N2 N2 N2 60.000(7) 2_655 3_665 ?
N2 N2 C1 68.5(9) 2_655 . ?
N2 N2 C1 68.5(9) 3_665 . ?
 
_refine_diff_density_max    0.583
_refine_diff_density_min   -0.438
_refine_diff_density_rms    0.091

_shelx_res_file
;
TITL perogel8515_0m_a.res in P6(3)/mmc
 shelxl.res created by SHELXL-2016/4 at 22:51:59 on 28-Jul-2017
CELL  0.71073   8.6667   8.6667   7.9077   90.000   90.000  120.000
ZERR     2.00   0.0006   0.0006   0.0006    0.000    0.000    0.000
LATT   1
SYMM  - Y,   X - Y,   Z
SYMM  - X + Y, - X,   Z
SYMM  - X, - Y, 1/2 + Z
SYMM    Y, - X + Y, 1/2 + Z
SYMM    X - Y,   X, 1/2 + Z
SYMM    Y,   X, - Z
SYMM    X - Y, - Y, - Z
SYMM  - X, - X + Y, - Z
SYMM  - Y, - X, 1/2 - Z
SYMM  - X + Y,   Y, 1/2 - Z
SYMM    X,   X - Y, 1/2 - Z
SFAC  C    H    I    N    PB
UNIT  2    0   6    4    2
MERG   2
DFIX     1.450   0.020 N2 C1
FMAP   2
PLAN   20
ACTA    50.00
LIST   6
L.S.  10
TEMP    25.07
WGHT    0.009200    0.928500
EXTI    0.001894
FVAR       0.34613
PB01  5    0.000000    0.000000    0.500000    10.08333    0.04801    0.04801 =
         0.04956    0.00000    0.00000    0.02400
I002  3    0.337994    0.168997    0.750000    10.25000    0.03746    0.08088 =
         0.07985    0.00000    0.00000    0.01873
C1    1    0.666667    0.333333    1.250000    10.08333    0.13234    0.13234 =
         0.17860    0.00000    0.00000    0.06617
N2    4    0.630575    0.261150    1.103458    10.16660    0.11524    0.11331 =
         0.10296    0.01717    0.00858    0.05666
HKLF    4




REM  perogel8515_0m_a.res in P6(3)/mmc
REM R1 =  0.0159 for     204 Fo > 4sig(Fo)  and  0.0202 for all     229 data
REM     16 parameters refined using      1 restraints

END

WGHT      0.0179      1.1286

REM Highest difference peak  0.583,  deepest hole -0.438,  1-sigma level  0.091
Q1    1   0.6667  0.3333  1.1228  10.16667  0.05    0.58
Q2    1   0.3733  0.1867  0.8477  10.50000  0.05    0.40
Q3    1   0.7078  0.4155  1.2500  10.25000  0.05    0.39
Q4    1   0.5655  0.2237  1.1799  11.00000  0.05    0.32
Q5    1   0.6667  0.3333  0.7500  10.08333  0.05    0.32
Q6    1   0.5518  0.1036  1.2500  10.25000  0.05    0.30
Q7    1   0.2542  0.0758  0.7500  10.50000  0.05    0.27
Q8    1   0.2147  0.1074  0.8676  10.50000  0.05    0.24
Q9    1   0.1507  0.3014  0.7500  10.25000  0.05    0.20
Q10   1   0.1706  0.0853  0.8629  10.50000  0.05    0.20
Q11   1   0.5450  0.2725  0.7500  10.25000  0.05    0.20
Q12   1   0.1730 -0.0429  0.8157  11.00000  0.05    0.18
Q13   1   0.5192  0.0384  1.1418  10.50000  0.05    0.18
Q14   1   0.1315  0.0658  0.7500  10.25000  0.05    0.17
Q15   1  -0.0737  0.0737  0.5190  10.50000  0.05    0.16
Q16   1   0.0000  0.0000  0.6882  10.16667  0.05    0.16
Q17   1   0.5012  0.0025  1.2500  10.25000  0.05    0.15
Q18   1   0.0000  0.0000  0.5736  10.16667  0.05    0.15
Q19   1   0.3512  0.1756  1.1343  10.50000  0.05    0.15
Q20   1   0.3110  0.3100  0.8147  11.00000  0.05    0.14
;
_shelx_res_checksum   51310

_shelx_hkl_file
;
   1   0   0 3442.96   82.49
   1   0   0 3407.16   82.69
   0  -1   0 3379.76   82.19
  -1   1   0 3514.45   82.79
   1   0   0 3368.36   82.39
   0  -1   0 3282.77   81.89
   0   1   0 3405.76   82.19
   1  -1   0 3527.45   82.79
  -1   0   0 3392.36   82.39
  -1   0   0 3353.96   82.39
  -1   0   0 3419.86   82.69
   1   1   0  661.93   16.00
  -2   1   0  654.13   16.20
   1  -2   0  664.53   16.20
  -2   1   0  656.33   16.30
  -1  -1   0  671.93   16.50
  -1  -1   0  658.63   16.10
  -1   2   0  662.23   16.20
  -1  -1   0  654.43   16.10
   2  -1   0  657.73   16.30
   2  -1   0  662.83   16.20
   0  -2   0   29.70    1.30
  -2   2   0   31.60    1.80
   2   0   0   28.00    1.40
   2   0   0   34.50    1.50
   2   0   0   28.10    1.70
   0  -2   0   30.60    1.10
  -2   0   0   30.80    1.30
   2  -2   0   30.40    1.60
   2  -2   0   30.80    1.70
   2  -3   0 2726.83   67.59
   1   2   0 2909.81   68.09
  -3   1   0 2752.12   67.79
  -3   1   0 2914.61   68.09
   3  -1   0 2701.43   67.49
  -2   3   0 2811.52   67.69
  -1  -2   0 2892.71   67.79
   3  -1   0 2741.93   67.79
   1  -3   0 2879.71   68.99
   2   1   0 2757.02   68.79
   2   1   0 2928.81   69.69
  -3   2   0 2795.42   68.99
   2   1   0 2921.41   69.39
  -3   2   0 2841.32   68.79
   3  -2   0 2808.62   68.79
  -1   3   0 2817.12   68.69
   3  -2   0 2781.62   68.99
  -1   3   0 2867.71   69.09
  -2  -1   0 2929.61   69.39
  -2  -1   0 2940.61   69.09
   3   0   0  615.94   15.90
  -3   3   0  635.44   16.00
   3   0   0  623.44   15.60
   3   0   0  639.14   15.70
   0  -3   0  616.24   15.30
   0  -3   0  628.74   15.60
   3  -3   0  631.04   15.90
   3  -3   0  626.54   15.90
   0   3   0  632.44   15.50
  -3   0   0  648.24   15.60
   1   3   0 1972.80   47.50
   3  -4   0 1987.90   48.10
  -4   1   0 1993.80   48.20
  -4   1   0 1982.40   47.80
   3  -4   0 1966.20   48.00
  -3   4   0 2027.70   48.10
  -1  -3   0 1952.00   47.80
  -1  -3   0 1937.51   47.70
   4  -1   0 1944.71   48.10
   4  -1   0 1938.41   47.80
   2   2   0 9596.34  234.58
   2  -4   0 9531.85  234.78
  -4   2   0 9965.50  235.18
  -2  -2   0 9999.00  235.88
  -2  -2   0 9572.24  235.28
  -2  -2   0 9717.63  235.18
   4  -2   0 9722.63  235.48
   4  -2   0 9674.43  235.88
  -2   4   0 9847.51  234.68
   1  -4   0 1967.40   47.70
   3   1   0 1934.21   47.90
  -4   3   0 2031.90   48.10
   3   1   0 1953.10   47.80
   3   1   0 2008.20   47.60
  -4   3   0 2017.70   48.20
  -3  -1   0 1973.40   48.90
  -1   4   0 1912.81   47.30
  -3  -1   0 1978.30   47.70
  -1   4   0 1955.20   47.70
  -3  -1   0 1914.11   47.70
   4  -3   0 1955.30   48.10
   4  -3   0 2006.60   48.00
  -4   4   0   34.20    2.80
   4   0   0   28.20    2.20
   0  -4   0   30.30    2.20
   4   0   0   36.90    3.00
   0  -4   0   29.20    1.30
  -4   0   0   26.00    2.20
   4  -4   0   33.30    2.50
   0   4   0   30.10    2.10
   4  -4   0   33.90    2.60
   1   4   0  181.48    5.10
  -5   1   0  185.98    5.60
   4  -5   0  172.08    6.00
   4  -5   0  175.88    6.20
   5  -1   0  175.38    6.30
  -1  -4   0  182.78    5.40
  -4   5   0  132.99    8.60
   5  -1   0  181.88    5.60
   5  -1   0  178.58    5.70
  -1  -4   0  193.38    5.50
  -5   2   0 1028.40   25.10
   2   3   0 1001.00   24.60
   3  -5   0 1002.70   25.20
  -2  -3   0  977.40   25.40
   5  -2   0  996.70   25.00
   5  -2   0  997.20   25.50
  -2  -3   0 1021.20   25.10
  -2  -3   0 1005.90   24.90
  -3   5   0 1029.20   25.30
  -5   3   0 1050.59   25.40
  -5   3   0 1011.40   25.70
   2  -5   0 1018.90   25.20
   3   2   0  989.20   25.10
   3   2   0 1006.20   24.80
  -2   5   0  999.10   24.80
   5  -3   0 1009.20   25.70
   5  -3   0 1011.90   25.30
  -3  -2   0 1037.50   25.20
  -3  -2   0 1009.70   25.10
  -2   5   0 1003.50   25.20
  -3  -2   0 1022.50   26.30
   4   1   0  185.88    5.60
   4   1   0  181.98    6.00
   1  -5   0  185.78    5.60
   4   1   0  179.78    5.50
  -5   4   0  179.88    6.60
  -4  -1   0  185.78    5.70
  -1   5   0  180.98    5.60
   5  -4   0  179.88    6.00
  -4  -1   0  185.58    5.60
  -4  -1   0  180.08    8.10
   5  -4   0  177.08    6.30
   5   0   0 1063.69   27.20
   5   0   0 1086.59   26.80
   0  -5   0 1071.49   26.70
  -5   5   0 1097.09   27.50
   5   0   0 1084.29   26.80
   5  -5   0 1063.49   27.30
   5  -5   0 1085.69   27.40
  -5   0   0 1101.29   26.80
   0   5   0 1054.29   26.50
  -6   1   0 1004.50   25.30
   1   5   0  994.20   24.60
   5  -6   0  990.10   25.70
   5  -6   0 1000.60   25.70
   6  -1   0 1002.90   25.20
  -1  -5   0  993.50   24.90
   6  -1   0 1022.60   25.90
  -1  -5   0 1006.20   25.10
  -5   6   0 1011.70   25.90
   6  -1   0 1003.90   25.20
   4  -6   0   43.60    3.30
   2   4   0   39.80    2.40
   4  -6   0   42.40    3.50
   6  -2   0   42.90    3.70
  -2  -4   0   40.40    3.80
  -4   6   0   31.90    3.40
   6  -2   0   37.30    3.40
  -2  -4   0   34.50    3.10
   3  -6   0   45.90    3.90
   3   3   0   45.10    3.30
  -6   3   0   45.00    3.90
   3   3   0   44.80    2.60
  -6   3   0   51.29    4.00
   6  -3   0   47.50    3.90
  -3  -3   0   45.60    3.20
  -3  -3   0   49.40    4.30
   6  -3   0   43.80    3.40
  -3   6   0   47.20    2.80
  -3  -3   0   47.90    3.40
  -3   6   0   57.29    4.30
   4   2   0   40.20    2.90
  -6   4   0   44.30    4.10
   4   2   0   42.10    3.00
   2  -6   0   41.00    3.30
   6  -4   0   36.60    3.60
  -2   6   0   37.00    2.30
  -4  -2   0   37.80    3.30
  -4  -2   0   41.10    3.30
   6  -4   0   50.39    3.90
  -2   6   0   45.30    3.20
  -4  -2   0   38.00    4.60
   5   1   0  985.70   25.50
   5   1   0 1033.80   25.10
   5   1   0 1010.20   25.30
  -6   5   0 1027.50   26.20
   1  -6   0 1035.40   25.30
   6  -5   0  981.70   25.70
  -1   6   0  994.80   25.10
  -5  -1   0  995.80   25.20
   6  -5   0  994.20   25.90
  -5  -1   0 1002.10   27.50
   6   0   0 2428.96   58.49
  -6   6   0 2429.86   59.39
   6   0   0 2339.17   58.89
   0  -6   0 2415.56   58.49
   6   0   0 2369.16   58.59
   6  -6   0 2422.16   59.09
   0   6   0 2353.66   58.09
   6  -6   0 2448.35   59.19
  -6   0   0 2385.86   61.09
   1   6   0  382.46   10.10
   6  -7   0  388.96   12.00
   6  -7   0  348.47   12.40
  -7   1   0  358.16   20.50
  -7   1   0  383.26   11.20
   7  -1   0  404.36   11.60
   7  -1   0  390.46   11.20
  -1  -6   0  407.46   12.00
  -6   7   0  377.66   13.00
   7  -1   0  393.16   12.30
  -1  -6   0  400.86   11.10
  -7   2   0  248.08    8.20
   5  -7   0  251.47    8.70
   2   5   0  237.88    6.80
   2   5   0  249.78    7.50
   5  -7   0  240.48    8.70
   7  -2   0  254.67    8.30
  -2  -5   0  252.67    8.30
  -5   7   0  257.97    9.30
   7  -2   0  243.98    8.00
  -2  -5   0  241.88    7.80
  -2  -5   0  239.78    7.80
   7  -2   0  254.57    9.50
   3   4   0  671.63   16.70
   4  -7   0  685.93   18.40
  -7   3   0  677.73   17.90
  -7   3   0  628.04   18.50
   4  -7   0  688.33   17.90
   3   4   0  648.84   17.00
  -4   7   0  685.63   18.20
   7  -3   0  674.33   18.50
  -4   7   0  669.43   17.30
  -3  -4   0  687.83   17.50
  -3  -4   0  680.93   17.80
   7  -3   0  681.23   17.80
  -3  -4   0  652.43   18.40
   4   3   0  647.44   17.30
  -7   4   0  691.33   19.00
  -7   4   0  675.43   18.20
   3  -7   0  678.43   17.80
   4   3   0  672.93   17.00
  -4  -3   0  694.53   17.70
  -4  -3   0  662.03   19.40
  -3   7   0  662.93   17.00
  -4  -3   0  695.33   17.80
  -3   7   0  669.93   18.10
   7  -4   0  677.83   17.90
   7  -4   0  683.63   18.80
   5   2   0  247.38    8.10
   2  -7   0  247.68    8.10
  -7   5   0  240.78    9.70
   5   2   0  247.68    7.50
  -5  -2   0  252.57   11.30
  -2   7   0  247.78    8.20
   7  -5   0  260.17    8.40
  -5  -2   0  250.47    8.00
  -5  -2   0  234.98    7.90
   7  -5   0  220.48   11.90
   6   1   0  385.76   11.00
  -7   6   0  388.86   13.10
   1  -7   0  397.46   11.20
   6   1   0  383.26   11.70
   6   1   0  384.76   11.10
   7  -6   0  405.26   12.30
  -1   7   0  372.96   10.90
  -6  -1   0  388.06   15.20
   7  -6   0  390.66   11.80
  -6  -1   0  377.66   11.10
   7   0   0  145.59    6.40
   7   0   0  130.19    6.20
   7   0   0  132.79    7.70
  -7   7   0  119.09    9.10
   0  -7   0  134.89    6.20
   0   7   0  119.49    5.00
  -7   0   0  141.69   12.30
   7  -7   0  135.29    7.60
  -7   0   0  126.29    6.20
   7  -7   0  137.79    7.40
  -8   1   0   10.90    3.50
   7  -8   0    8.40    4.60
   7  -8   0   11.30    4.80
  -8   1   0    3.20    8.50
   8  -1   0   14.80    3.50
  -7   8   0   11.20    6.20
   8  -1   0    5.80    5.00
  -1  -7   0   15.40    4.50
   8  -1   0    6.50    4.20
  -8   2   0   17.90    3.70
  -8   2   0    9.80    7.20
   6  -8   0   17.20    4.10
   6  -8   0   16.70    4.20
   8  -2   0   22.90    4.40
  -2  -6   0   19.00    2.70
  -2  -6   0   16.00    3.90
  -2  -6   0   13.20    3.40
   8  -2   0   19.20    5.10
  -6   8   0   20.90    5.60
   8  -2   0   14.90    3.50
   5  -8   0  410.76   12.40
   5  -8   0  392.26   12.90
  -8   3   0  409.46   12.40
  -5   8   0  414.36   11.70
   8  -3   0  403.06   12.40
  -3  -5   0  394.76   12.20
   8  -3   0  408.06   12.20
  -5   8   0  424.16   13.40
  -3  -5   0  389.16   12.40
  -3  -5   0  390.86   11.70
   8  -3   0  330.97   17.60
   4   4   0 1280.67   31.30
   4  -8   0 1322.17   32.70
   4   4   0 1262.47   31.20
  -8   4   0 1291.77   32.90
   4  -8   0 1270.17   33.20
  -4   8   0 1256.07   32.70
  -4  -4   0 1249.57   33.50
  -4  -4   0 1295.67   32.20
  -4  -4   0 1310.17   32.40
   8  -4   0 1295.37   33.30
  -4   8   0 1228.48   31.60
   8  -4   0 1299.27   32.60
   5   3   0  414.66   11.30
  -8   5   0  395.46   14.00
   5   3   0  392.96   10.90
   3  -8   0  383.46   12.10
  -5  -3   0  396.06   11.90
  -3   8   0  400.76   12.40
   8  -5   0  408.76   12.40
   8  -5   0  425.26   13.60
  -5  -3   0  419.36   12.00
  -5  -3   0  411.56   14.90
   2  -8   0   19.20    3.50
   6   2   0   16.50    3.80
   6   2   0   17.90    3.50
  -8   6   0   25.50    6.30
  -2   8   0   15.10    3.80
  -6  -2   0   10.00    3.20
   8  -6   0   22.30    4.70
  -6  -2   0   24.90    7.00
   8  -6   0   18.20    3.90
   7   1   0   12.50    3.50
   1  -8   0    8.70    3.60
  -8   7   0   10.00    7.40
   7   1   0    7.30    3.60
   7   1   0    9.50    4.20
  -7  -1   0   13.60    8.00
   8  -7   0   14.60    4.50
   8  -7   0    9.00    4.60
  -1   8   0    8.90    3.10
  -7  -1   0   12.40    3.20
   8   0   0   21.60    5.20
   8   0   0   21.60    4.10
   8   0   0   19.40    4.40
   0  -8   0   25.90    4.20
  -8   0   0   14.90    9.70
   8  -8   0   20.30    5.30
  -8   0   0   22.40    4.20
   8  -8   0   24.20    5.70
   8  -9   0  176.68   10.90
  -9   1   0  194.98   18.20
   8  -9   0  176.48   11.20
  -9   1   0  190.08    9.50
   9  -1   0  165.68    9.80
  -1  -8   0  189.68    9.00
   9  -1   0  176.28    9.00
   9  -1   0  181.58   11.60
  -8   9   0  220.38   17.50
  -9   2   0  147.69    8.50
  -9   2   0  158.48   13.80
   7  -9   0  142.79    9.60
   7  -9   0  145.09    9.30
   9  -2   0  133.39   10.40
   9  -2   0  136.89    8.20
  -2  -7   0  145.39    9.60
  -2  -7   0  136.89    7.90
   9  -2   0  129.69    9.60
  -7   9   0  133.69   12.30
  -7   9   0  129.69   14.10
   6  -9   0   36.50    5.40
  -9   3   0   38.70    5.10
  -9   3   0   21.40    9.90
   6  -9   0   34.30    5.40
  -3  -6   0   40.10    4.40
   9  -3   0   36.60    4.80
   9  -3   0   35.80    6.50
  -6   9   0   35.60    4.60
  -6   9   0   52.99    7.30
   9  -3   0   34.50    5.60
  -3  -6   0   38.50    4.40
  -3  -6   0   46.50    5.30
  -6   9   0   44.50    7.30
  -9   4   0   95.09   11.40
   5  -9   0   91.49    7.30
   5  -9   0   91.69    8.20
  -9   4   0   94.79    8.30
  -5   9   0  100.19    7.40
  -5   9   0   93.79    5.70
  -4  -5   0   95.39    7.60
  -4  -5   0  108.49    8.80
  -4  -5   0   89.49    6.60
   9  -4   0   94.19   10.30
   9  -4   0  101.09    9.10
  -5   9   0   90.79    8.80
   4  -9   0   82.39    7.50
   4  -9   0   87.49    8.80
  -5  -4   0  102.59    7.30
   9  -5   0  103.79    9.20
  -4   9   0   93.19    4.30
  -4   9   0  118.29    9.00
  -5  -4   0  103.39    6.80
  -5  -4   0  105.09   10.40
   9  -5   0   95.99    7.30
   6   3   0   50.09    4.70
   3  -9   0   39.90    4.90
   6   3   0   34.90    3.10
  -6  -3   0   40.50    4.60
  -3   9   0   35.00    5.20
   9  -6   0   41.20    5.10
  -6  -3   0   53.39    8.20
   9  -6   0   33.80    6.20
  -6  -3   0   35.90    4.30
   2  -9   0  132.69    8.10
   7   2   0  149.39    7.30
  -2   9   0  148.49    7.40
  -7  -2   0  137.59    7.70
  -7  -2   0  144.79   11.80
   9  -7   0  145.49    9.00
   9  -7   0  133.39   10.90
   8   1   0  167.18    9.40
   1  -9   0  179.88    9.20
   8   1   0  174.98    8.90
   8   1   0  177.78    8.70
  -9   8   0  196.28   18.50
  -8  -1   0  162.28    9.10
   9  -8   0  178.48   11.40
   9  -8   0  180.78   10.80
  -8  -1   0  183.88   17.50
   0  -9   0   97.79    8.90
  -9   9   0  114.19   14.00
   9   0   0  108.49    9.40
   9   0   0   84.29    8.20
   9  -9   0   98.19    8.20
  -9   0   0   99.09   14.60
   9  -9   0   76.59    8.40
   8 -10   0  241.28   13.60
 -10   2   0  232.18   21.70
   8 -10   0  226.78   13.40
  10  -2   0  234.88   11.50
  10  -2   0  265.57   12.90
  -8  10   0  248.58   19.40
  -2  -8   0  243.48   11.60
   7 -10   0  139.29   11.00
 -10   3   0  124.59   14.40
 -10   3   0  124.19   11.20
   7 -10   0  134.19   11.00
  10  -3   0  145.09   12.30
  -3  -7   0  139.69    8.90
  -3  -7   0  154.08   12.60
  10  -3   0  130.79   10.00
  -7  10   0  137.79   11.10
 -10   4   0   13.80   11.70
   6 -10   0   13.90    6.30
   6 -10   0   25.70    6.20
  10  -4   0   22.90    7.60
  -6  10   0   33.30    8.40
  -4  -6   0   21.80    4.90
  -4  -6   0   19.50    6.00
  -4  -6   0   15.00    5.90
  10  -4   0   10.40    5.60
  -6  10   0   14.00    7.00
   5 -10   0    4.40    5.60
   5 -10   0   -1.90    5.50
 -10   5   0   10.90   12.10
  -5  10   0    3.90    7.40
  -5  -5   0    3.10    7.20
  -5  -5   0    4.10    5.10
  -5  -5   0   -4.60    4.50
  10  -5   0    3.40    7.30
  10  -5   0   -2.40    5.50
   4 -10   0   19.80    6.50
 -10   6   0   23.80   11.70
   4 -10   0   12.30    5.60
  -6  -4   0    8.80    4.90
  10  -6   0    9.00    7.50
  10  -6   0   15.70    5.80
  -6  -4   0   21.90    5.20
   3 -10   0  135.49    9.90
 -10   7   0  141.09   15.20
  10  -7   0  152.48   10.50
  10  -7   0  135.19   12.50
  -7  -3   0  149.79   16.20
   2 -10   0  230.88   11.40
 -10   8   0  257.07   22.80
  -8  -2   0  235.28   19.90
  10  -8   0  222.48   12.50
  10  -8   0  247.38   14.70
   0   0  -1    0.80    0.30
   0   0  -1   -0.10    0.50
   0   0   1    0.40    0.60
   0   0   1    0.60    0.30
   0   0   1    0.40    0.30
   0   1  -1  411.66   10.20
   0   1  -1  411.16   10.00
  -1   0  -1  400.86    9.80
   1  -1  -1  405.16   10.00
   1  -1  -1  407.26   10.30
   0  -1   1  383.06   10.20
  -1   1   1  400.46   10.30
   0  -1   1  412.56   10.10
  -1   1   1  410.56   10.00
   0  -1   1  404.46   10.00
   0  -1  -1  400.46   10.10
  -1   1  -1  412.86   10.20
   0  -1  -1  401.46   10.10
   1   0  -1  421.36   10.30
   1   0  -1  426.26   10.20
   1   0  -1  406.96   10.60
  -1   1  -1  419.46   10.30
  -1   0   1  420.16   10.20
   0   1   1  399.96   10.10
   0   1   1  413.26   10.10
  -1   0   1  406.26   10.20
   1  -1   1  408.16   10.20
  -1   0   1  415.96   10.70
   2  -1  -1    0.90    0.80
  -1   2  -1    2.90    0.80
   2  -1  -1    0.70    1.60
  -1   2  -1    2.30    0.80
   1  -2   1    0.40    0.80
   1  -2   1    2.20    0.80
  -2   1   1    0.80    1.80
  -2   1   1    0.50    0.80
  -1   3  -1  263.87    7.00
  -2  -1  -1  259.97    6.80
  -2  -1  -1  263.97    6.60
   3  -2  -1  261.07    7.40
  -1   3  -1  266.97    7.10
   3  -2  -1  267.07    7.20
  -2  -1  -1  265.07    6.70
  -3   2   1  271.67    7.20
   1  -3   1  264.17    7.10
   1  -3   1  260.07    6.90
  -3   2   1  254.37    8.50
   2  -2  -1 5610.44  137.49
   0   2  -1 5739.43  136.79
  -2   0  -1 5739.43  136.59
   0   2  -1 5726.83  137.59
   2  -2  -1 5509.45  136.59
  -2   0  -1 5630.64  135.89
   0  -2   1 5501.55  136.39
   2   0   1 5603.04  135.89
   2   0   1 5657.13  136.19
   0  -2   1 5770.62  137.19
  -2   2   1 5899.71  136.69
  -2   2   1 5477.85  136.69
   1  -2  -1    1.30    0.90
   1   1  -1    1.40    0.80
   1  -2  -1    0.00    0.80
   1   1  -1    2.20    0.80
  -2   1  -1    0.40    0.70
   1   1  -1    0.00    1.10
  -1  -1   1    0.30    1.20
  -1  -1   1    0.60    0.70
   2  -1   1    0.90    0.60
  -1  -1   1    0.80    0.70
   2  -1   1   -0.60    0.70
  -1   2   1    0.00    0.80
  -2   2  -1 5728.43  137.89
   0  -2  -1 5645.14  136.89
   2   0  -1 5546.84  138.79
   2   0  -1 5781.62  139.99
   0  -2  -1 5635.44  137.19
   2   0  -1 5572.44  137.79
  -2   0   1 5828.42  139.49
   2  -2   1 5635.64  138.29
  -2   0   1 5789.52  138.49
  -2   0   1 5898.41  138.89
   3  -1  -1  264.77    7.50
   3  -1  -1  268.87    7.20
  -2   3  -1  268.37    7.20
  -2   3  -1  267.07    7.20
  -3   1   1  275.47    7.20
  -3   1   1  255.17    8.70
   2  -3   1  261.17    7.20
  -2   4  -1   -1.30    1.40
  -2   4  -1    1.50    1.30
  -2  -2  -1    0.10    0.90
   4  -2  -1   -1.50    1.70
   4  -2  -1    3.60    1.50
  -2  -2  -1    0.60    0.80
  -4   2   1   -0.20    3.00
   2  -4   1    0.60    1.40
   5  -3  -1  141.29    4.90
  -3  -2  -1  138.99    4.20
  -3  -2  -1  132.19    4.20
   5  -3  -1  130.19    5.40
  -2   5  -1  131.49    4.50
  -2   5  -1  126.69    4.90
  -5   3   1  131.29    7.60
   2  -5   1  128.49    4.80
  -5   3   1  137.99    5.00
  -3  -1  -1  382.66    9.80
  -1   4  -1  375.56   10.10
  -3  -1  -1  382.56   10.00
   4  -3  -1  385.06   10.30
  -3  -1  -1  388.56    9.70
  -1   4  -1  373.76   10.00
   4  -3  -1  384.06   10.60
   3   1   1  391.06    9.60
   1  -4   1  391.26   10.20
   3   1   1  391.36   10.00
  -4   3   1  391.36   10.40
  -4   3   1  375.86   12.10
   3  -3  -1   19.40    1.90
   0   3  -1   21.20    1.80
  -3   0  -1   19.60    1.60
   0   3  -1   17.00    1.40
  -3   0  -1   21.50    1.20
   0  -3   1   20.60    1.60
   3   0   1   16.80    1.40
  -3   3   1   16.00    1.90
   0  -3   1   22.50    1.90
   3   0   1   16.30    1.50
  -3   3   1   23.90    3.00
  -3   3   1   19.40    1.70
   3   0   1   18.50    1.70
   1   2  -1  260.77    7.50
   2  -3  -1  258.47    7.10
  -3   1  -1  275.67    6.90
  -3   1  -1  269.47    7.20
   1   2  -1  263.87    7.00
   2  -3  -1  258.27    7.20
  -2   3   1  255.67    7.20
  -1  -2   1  264.77    7.50
  -2   3   1  258.67    7.70
  -1  -2   1  279.37    7.30
   3  -1   1  269.87    6.80
  -1  -2   1  265.47    7.00
   3  -1   1  273.27    7.10
   2   1  -1  269.27    7.30
   2   1  -1  307.47    8.30
  -3   2  -1  263.07    7.30
   2   1  -1  272.37    7.20
   1  -3  -1  260.97    6.90
  -2  -1   1  263.07    8.10
   3  -2   1  275.17    7.10
  -2  -1   1  269.67    7.20
   3  -2   1  261.27    7.20
  -2  -1   1  261.07    7.20
  -1   3   1  260.57    6.80
   3   0  -1   15.90    1.50
   0  -3  -1   21.60    1.30
  -3   3  -1   22.10    1.90
   3   0  -1   15.50    1.60
  -3   0   1   18.60    1.60
  -3   0   1   19.50    2.90
  -1  -3  -1  380.46    9.50
   4  -1  -1  370.76   10.10
   4  -1  -1  379.06   10.00
  -3   4  -1  374.66   10.20
   4  -1  -1  358.86   10.50
  -4   1   1  395.96   10.10
   3  -4   1  386.76   10.20
  -4   1   1  384.56   12.20
  -2  -3  -1  128.89    4.00
   5  -2  -1  129.59    5.40
   5  -2  -1  127.69    4.80
  -3   5  -1  134.79    5.00
  -3   5  -1  138.09    4.70
  -2  -3  -1  135.49    4.40
  -2  -3  -1  130.19    5.30
  -5   2   1  123.99    7.70
  -5   2   1  132.49    4.90
   3  -5   1  134.69    4.90
  -3  -3  -1    2.70    3.00
   6  -3  -1    2.00    2.60
   6  -3  -1    0.40    2.10
  -3   6  -1    2.20    2.00
  -3  -3  -1   -1.30    1.60
  -3   6  -1    0.20    2.40
  -3  -3  -1    2.00    1.70
  -6   3   1    0.00    4.80
   3  -6   1   -2.50    2.10
  -6   3   1   -1.60    2.30
  -4  -3  -1   21.60    2.40
  -3   7  -1   15.10    2.70
  -3   7  -1   17.30    3.50
   7  -4  -1   25.60    3.30
  -4  -3  -1   18.10    4.60
  -4  -3  -1   16.90    2.40
   7  -4  -1   19.00    4.00
  -7   4   1   26.50    7.30
  -7   4   1   20.10    3.50
   3  -7   1   21.70    3.20
  -2   6  -1 1025.10   25.10
  -4  -2  -1 1020.90   25.10
  -2   6  -1 1000.70   25.40
  -4  -2  -1 1010.90   25.00
   6  -4  -1  977.70   25.60
   6  -4  -1 1006.70   26.00
   4   2   1  992.30   24.40
  -6   4   1 1026.30   25.80
   2  -6   1 1025.40   25.50
  -6   4   1  999.80   28.30
   5  -4  -1   11.40    2.10
  -1   5  -1   12.10    2.10
  -1   5  -1   12.30    1.90
   5  -4  -1   13.90    2.60
  -4  -1  -1   10.80    1.30
   1  -5   1    9.70    1.90
   4   1   1    9.00    1.60
   4   1   1    9.80    1.30
  -5   4   1   19.00    3.00
  -5   4   1   11.40    4.10
   4   1   1    8.80    1.40
  -5   4   1   11.20    2.50
  -4   0  -1 2081.29   50.09
   0   4  -1 2089.59   49.90
  -4   0  -1 2078.29   49.60
   0   4  -1 2048.30   49.99
   4  -4  -1 2092.69   50.29
   4  -4  -1 2081.29   50.29
   4   0   1 2103.99   49.70
  -4   4   1 1816.42   50.99
  -4   4   1 2110.89   50.39
   0  -4   1 2058.09   49.99
   4   0   1 2038.20   49.80
   4   0   1 2040.70   49.70
   0  -4   1 2077.39   49.80
  -4   4   1 2047.40   51.39
   3  -4  -1  384.96   10.20
  -4   1  -1  395.76    9.80
   1   3  -1  367.76   10.50
   1   3  -1  389.96   10.00
   3  -4  -1  380.86   10.40
  -4   1  -1  381.36   10.20
  -1  -3   1  387.96   10.30
  -3   4   1  382.76   10.50
  -1  -3   1  385.46   10.00
  -3   4   1  354.66   11.10
   4  -1   1  378.86    9.70
  -1  -3   1  392.36   10.40
   4  -1   1  384.96   10.10
   2   2  -1   -4.10    2.10
  -4   2  -1    1.20    1.50
   2  -4  -1   -1.50    1.20
   2   2  -1   -0.10    1.20
   2  -4  -1    1.20    1.40
  -2  -2   1   -2.20    1.90
  -2  -2   1   -0.80    1.30
  -2   4   1    0.00    1.70
  -2   4   1   -2.30    1.50
   4  -2   1   -2.00    1.40
  -2  -2   1   -1.40    1.20
  -4   3  -1  395.26   10.50
   3   1  -1  394.66   10.20
   3   1  -1  372.76   10.30
   1  -4  -1  382.76    9.90
  -3  -1   1  390.86   11.70
  -3  -1   1  387.86   10.20
   4  -3   1  374.86   10.40
  -3  -1   1  396.36   10.30
   4  -3   1  387.86   10.20
  -4   4  -1 2082.49   51.09
   0  -4  -1 2078.09   50.49
   4   0  -1 2048.79   50.99
   4   0  -1 2141.59   50.89
   4   0  -1 2121.69   51.29
   4  -4   1 2032.70   50.99
  -4   0   1 2129.29   50.89
  -4   0   1 2127.29   52.59
   4  -4   1 2066.19   51.09
  -1  -4  -1   11.60    1.40
   5  -1  -1   10.80    2.50
   5  -1  -1   10.40    2.10
   5  -1  -1    8.70    2.10
  -1  -4  -1   10.40    1.50
  -4   5  -1   13.20    2.50
  -5   1   1   10.10    4.20
  -5   1   1   10.70    2.00
   4  -5   1    8.60    2.20
   6  -2  -1  991.40   25.40
   6  -2  -1 1009.20   25.30
  -2  -4  -1  967.50   25.20
  -4   6  -1 1006.40   25.30
  -2  -4  -1  997.40   24.70
   6  -2  -1 1005.40   25.90
  -2  -4  -1 1016.10   25.10
  -4   6  -1  993.60   25.60
  -6   2   1 1017.30   25.40
  -6   2   1 1011.20   28.30
   4  -6   1  996.20   25.50
  -3  -4  -1   20.20    3.70
  -4   7  -1   21.70    3.00
   7  -3  -1   23.00    4.30
  -3  -4  -1   24.30    2.80
   7  -3  -1   23.40    3.20
  -4   7  -1   20.20    3.80
  -3  -4  -1   23.90    2.60
   4  -7   1   21.30    3.40
  -7   3   1   25.10    3.60
  -7   3   1   17.70    6.30
  -4  -4  -1    2.10    4.50
  -4   8  -1   -3.50    2.80
   8  -4  -1    2.50    4.60
  -4   8  -1   -8.00    4.20
   8  -4  -1    3.40    3.70
  -4  -4  -1   -4.90    2.90
  -4  -4  -1   -2.70    2.60
  -8   4   1   -1.60    3.60
  -8   4   1   -6.40    7.90
   4  -8   1    3.10    3.60
   9  -5  -1   15.00    4.90
  -5  -4  -1   11.50    3.50
  -4   9  -1   19.20    5.70
  -5  -4  -1   11.70    6.30
  -4   9  -1    4.10    3.40
   9  -5  -1    8.60    6.00
   4  -9   1   11.20    4.60
  -9   5   1    8.20    5.40
  -9   5   1   11.90   10.20
  -5  -3  -1   97.59    5.60
  -5  -3  -1   96.59    9.40
  -3   8  -1  102.19    5.40
   8  -5  -1  105.89    6.60
  -3   8  -1  104.69    7.50
   8  -5  -1  113.19    8.40
  -5  -3  -1  116.29    5.30
  -8   5   1  147.79   11.50
   3  -8   1  107.89    6.60
  -8   5   1   99.79    7.70
   7  -5  -1   10.90    3.90
  -2   7  -1   16.90    2.70
  -2   7  -1   14.80    3.30
  -5  -2  -1   16.70    2.20
  -5  -2  -1   14.60    5.20
   7  -5  -1   19.00    3.30
   5   2   1   16.40    1.50
  -7   5   1   14.00    3.70
  -7   5   1   19.90    6.50
   2  -7   1   14.90    2.90
  -1   6  -1  154.98    5.50
  -5  -1  -1  156.68    5.10
   6  -5  -1  146.59    6.20
  -1   6  -1  150.38    8.40
   6  -5  -1  149.79    6.70
  -6   5   1  166.68    7.50
   5   1   1  162.08    4.90
   5   1   1  153.28    5.30
   1  -6   1  151.48    5.90
  -6   5   1  152.58   10.00
   5   1   1  158.48    5.10
   5  -5  -1    6.80    2.50
   0   5  -1    8.90    2.00
   0   5  -1    8.40    2.30
   5  -5  -1    8.10    2.60
  -5   0  -1    7.60    2.50
  -5   0  -1    7.70    1.60
   5   0   1    5.60    2.20
   0  -5   1   11.00    1.70
   5   0   1    7.00    1.40
  -5   5   1   14.00    4.40
  -5   5   1    9.60    3.30
   0  -5   1    9.00    2.10
   5   0   1    7.10    1.90
   1   4  -1   12.30    2.60
  -5   1  -1   10.70    2.40
   4  -5  -1    7.20    2.30
   4  -5  -1    5.10    2.00
   1   4  -1   10.60    1.70
  -5   1  -1   10.40    1.60
  -1  -4   1   11.00    1.90
  -1  -4   1    9.90    2.00
  -4   5   1    6.80    3.40
   5  -1   1   10.10    2.30
   5  -1   1   10.80    1.80
  -1  -4   1   10.80    2.20
  -4   5   1   12.90    2.80
   5  -1   1   11.30    1.50
   3  -5  -1  130.09    5.00
  -5   2  -1  132.29    4.50
  -5   2  -1  130.29    5.10
   2   3  -1  133.19    4.50
   3  -5  -1  129.49    4.60
   5  -2   1  131.79    4.30
  -2  -3   1  127.29    5.50
   5  -2   1  126.69    5.10
  -2  -3   1  132.99    4.90
  -3   5   1  118.09    5.40
  -2  -3   1  133.09    4.50
  -3   5   1  125.69    5.20
   2  -5  -1  140.89    4.60
   3   2  -1  132.09    4.90
   2  -5  -1  131.49    5.10
   3   2  -1  133.69    4.60
  -5   3  -1  140.19    5.30
   5  -3   1  123.29    5.30
  -3  -2   1  136.49    6.40
  -2   5   1  128.29    4.70
  -3  -2   1  134.29    4.90
  -2   5   1  126.89    4.00
  -3  -2   1  134.49    4.60
   5  -3   1  145.89    4.70
   4   1  -1    9.20    1.90
   4   1  -1   11.50    2.00
   1  -5  -1   11.00    1.60
   4   1  -1   10.00    2.40
  -5   4  -1   11.80    2.70
  -4  -1   1    8.50    3.80
  -4  -1   1   10.40    1.90
   5  -4   1    7.70    2.40
  -4  -1   1   13.50    2.10
   5  -4   1   13.40    2.20
   5   0  -1    9.80    2.00
   0  -5  -1    9.30    1.60
   5   0  -1   14.20    2.90
   5   0  -1   11.40    2.30
  -5   5  -1    4.80    2.90
   5  -5   1    7.30    2.50
  -5   0   1    3.70    4.20
   5  -5   1    7.60    2.20
  -1  -5  -1  161.48    5.20
   6  -1  -1  166.28    7.20
  -5   6  -1  151.28    6.90
   6  -1  -1  156.88    6.20
   6  -1  -1  157.58    6.00
  -6   1   1  159.18    6.10
   5  -6   1  149.19    6.40
  -6   1   1  158.38   10.30
   5  -6   1  148.59    6.40
  -2  -5  -1   15.50    2.60
  -5   7  -1   14.10    4.10
  -2  -5  -1   14.80    2.80
  -5   7  -1   10.60    3.20
   7  -2  -1   19.20    3.60
   7  -2  -1   16.10    3.10
   7  -2  -1    6.80    4.00
  -2  -5  -1   14.80    2.40
   5  -7   1   15.00    3.60
  -7   2   1   17.10    3.20
   5  -7   1   13.00    4.40
  -7   2   1   20.90    6.80
  -3  -5  -1  115.19    5.50
   8  -3  -1  103.69    8.30
   8  -3  -1  110.39    7.10
  -3  -5  -1  111.19    6.30
  -5   8  -1  119.19    8.50
  -3  -5  -1  111.69    6.60
  -5   8  -1   99.29    6.20
   8  -3  -1  115.79    7.00
  -8   3   1  102.99    7.00
   5  -8   1  121.69    7.70
   5  -8   1  106.69    6.90
  -8   3   1  108.99   10.40
  -4  -5  -1    8.00    4.00
  -5   9  -1   14.20    6.00
  -4  -5  -1    7.20    3.60
   9  -4  -1    8.40    6.10
  -4  -5  -1   10.70    5.10
   9  -4  -1    5.30    4.70
   5  -9   1   11.60    4.90
  -9   4   1    0.70    4.90
  -9   4   1    6.10    9.70
   5  -9   1   11.70    5.50
  -5  10  -1    6.10    7.30
  -5  -5  -1    1.50    7.10
  -5  -5  -1    8.00    4.80
  10  -5  -1   -1.50    6.20
  10  -5  -1    5.30    7.60
  -5  -5  -1   -2.00    4.50
   5 -10   1   -2.80    6.40
   5 -10   1    1.60    5.70
 -10   5   1  -12.50   12.00
  10  -6  -1   80.19    8.80
  -6  -4  -1   69.79    5.80
  -4  10  -1   68.39    7.70
  10  -6  -1   64.09    7.50
  -6  -4  -1   63.99    9.40
 -10   6   1   70.39   14.50
   4 -10   1   67.99    6.70
  -6  -3  -1    8.00    3.20
   9  -6  -1   11.50    5.80
   9  -6  -1    5.10    4.50
  -3   9  -1   -2.80    5.10
  -6  -3  -1   -2.90    7.20
  -9   6   1   10.40   11.10
   3  -9   1    0.70    4.30
   8  -6  -1  230.68    9.30
  -6  -2  -1  232.48    7.70
  -6  -2  -1  242.38   13.00
  -2   8  -1  224.08    9.00
   8  -6  -1  232.28   10.00
   2  -8   1  230.38    9.00
  -8   6   1  239.78   15.40
   7  -6  -1   89.29    6.60
  -1   7  -1   98.79    5.70
  -1   7  -1   90.59    4.30
  -6  -1  -1   93.89    4.50
   6   1   1   92.99    4.70
   6   1   1   92.69    4.70
  -7   6   1  108.69   11.20
   6   1   1   99.69    4.40
   1  -7   1  103.09    5.50
  -6   0  -1   -0.80    1.80
   6  -6  -1    0.30    2.80
   0   6  -1    1.30    2.50
   6  -6  -1   -6.20    3.00
   6   0   1    3.60    2.80
   6   0   1    0.30    1.70
  -6   6   1    2.50    5.20
   6   0   1    1.60    2.20
  -6   6   1    4.30    4.00
   0  -6   1    0.30    1.70
   0  -6   1   -1.20    2.40
  -6   1  -1  151.28    5.40
   5  -6  -1  169.38    6.60
   5  -6  -1  170.38    6.40
  -6   1  -1  151.98    6.50
   1   5  -1  158.78    5.50
  -1  -5   1  158.88    5.60
   6  -1   1  147.29    6.30
  -1  -5   1  142.99    6.30
  -5   6   1  162.68    7.10
   6  -1   1  156.48    5.30
  -1  -5   1  152.28    5.80
  -5   6   1  158.58    8.80
   4  -6  -1 1018.60   25.50
  -6   2  -1 1021.20   25.20
   4  -6  -1  991.70   25.70
   2   4  -1 1011.40   25.00
  -6   2  -1 1035.80   25.80
   6  -2   1  978.30   25.60
   6  -2   1 1008.90   25.00
  -2  -4   1  985.90   25.70
  -4   6   1  976.20   26.10
  -2  -4   1 1008.90   25.20
  -4   6   1  992.50   26.30
  -2  -4   1 1009.90   25.60
   3   3  -1    0.30    1.90
   3  -6  -1    2.20    2.50
   3  -6  -1   -2.50    1.90
  -6   3  -1    0.80    2.80
  -3   6   1    0.00    2.60
   6  -3   1    3.20    2.70
   6  -3   1    3.40    1.70
  -3  -3   1   -2.60    3.10
  -3  -3   1   -1.60    2.20
  -3   6   1    0.10    2.20
  -3  -3   1   -0.60    2.00
   4   2  -1 1006.20   25.40
   4   2  -1  984.50   25.30
   2  -6  -1 1005.20   25.00
   4   2  -1 1023.50   25.10
  -6   4  -1  978.00   25.70
   6  -4   1  997.00   25.20
  -4  -2   1 1024.60   25.30
   6  -4   1 1004.50   25.70
  -4  -2   1  983.90   26.90
  -2   6   1  965.90   24.80
  -4  -2   1 1019.30   25.20
   5   1  -1  152.38    5.90
   5   1  -1  162.58    6.70
   5   1  -1  156.98    6.00
  -6   5  -1  154.58    7.00
   1  -6  -1  165.58    5.40
   6  -5   1  157.58    6.10
  -5  -1   1  150.28    9.40
  -5  -1   1  159.18    5.90
   6  -5   1  159.18    6.60
  -6   6  -1   -4.30    3.70
   0  -6  -1    2.20    2.00
   6   0  -1    1.20    2.40
   6   0  -1    2.00    3.50
   6   0  -1    0.90    2.90
  -6   0   1    1.60    2.40
   6  -6   1    2.70    2.70
   6  -6   1    2.70    3.00
  -6   0   1   -4.10    5.40
   7  -1  -1   92.39    6.70
   7  -1  -1   94.29    6.40
  -1  -6  -1   94.99    4.70
   7  -1  -1   94.59    5.60
  -6   7  -1   90.09    7.40
  -7   1   1   92.69   10.30
  -7   1   1   95.89    5.70
   6  -7   1   93.59    6.40
   6  -7   1   63.49    6.60
  -6   8  -1  226.38    9.40
  -2  -6  -1  236.58    7.90
  -2  -6  -1  218.88    8.80
   8  -2  -1  254.17   10.60
   8  -2  -1  234.88    9.10
  -6   8  -1  219.98   10.40
   8  -2  -1  236.08    9.40
  -8   2   1  229.68    9.20
   6  -8   1  234.78    9.60
   6  -8   1  229.88    9.50
  -8   2   1  255.97   15.50
  -6   9  -1   11.00    6.50
  -3  -6  -1    8.70    3.60
   9  -3  -1    6.90    6.30
  -6   9  -1    5.50    4.30
  -3  -6  -1    6.00    4.60
  -3  -6  -1    7.90    3.50
   9  -3  -1    3.40    4.50
   6  -9   1   -0.30    4.80
  -9   3   1    5.40   10.30
   6  -9   1   -5.50    4.80
  -9   3   1    6.60    4.90
  10  -4  -1   79.89    8.80
  -4  -6  -1   76.69    5.70
  -4  -6  -1   71.19    7.70
  -4  -6  -1   76.49    6.50
  10  -4  -1   68.99    7.10
   6 -10   1   59.39    7.60
 -10   4   1   74.39   14.20
   6 -10   1   80.39    7.60
  10  -7  -1   22.10    5.90
  10  -7  -1   21.00    7.90
  -7  -3  -1   16.30   10.10
 -10   7   1   11.20   13.70
   3 -10   1   26.10    6.40
  -7  -2  -1    8.50    3.40
  -2   9  -1    0.00    5.10
   9  -7  -1    7.80    5.30
  -7  -2  -1   -4.10    8.40
   9  -7  -1    4.00    5.90
   2  -9   1    3.70    4.50
  -9   7   1  -11.30   10.90
  -1   8  -1    1.30    3.80
   8  -7  -1   10.90    4.70
  -7  -1  -1   -5.30    8.00
   8  -7  -1    1.80    4.40
   7   1   1    4.60    2.90
   7   1   1    2.50    2.70
   1  -8   1    3.30    3.70
  -8   7   1   14.90    9.30
   7  -7  -1    2.70    3.90
   7  -7  -1    0.70    3.40
  -7   0  -1    2.00    2.50
   7   0   1    2.30    3.40
   7   0   1   -0.70    3.40
  -7   7   1   -5.40    7.10
   0  -7   1   -4.40    3.30
   7   0   1   -0.60    2.50
   6  -7  -1  102.09    6.30
   6  -7  -1  101.29    6.10
  -7   1  -1   98.49    5.10
   1   6  -1   98.79    5.10
  -1  -6   1  107.29    6.80
  -1  -6   1  103.29    5.40
   7  -1   1  101.49    5.70
  -6   7   1   94.99   10.00
  -1  -6   1   96.29    4.50
   7  -1   1  100.99    4.80
  -6   7   1   96.79    7.60
   7  -1   1   93.79    6.40
   5  -7  -1   11.20    3.30
  -7   2  -1   20.90    4.20
   2   5  -1   17.20    2.60
   5  -7  -1   14.40    3.50
  -2  -5   1   14.50    3.10
  -5   7   1   11.10    4.70
   7  -2   1   11.30    3.60
  -2  -5   1   13.80    3.20
  -2  -5   1   11.80    2.90
   7  -2   1   15.40    2.50
  -5   7   1   14.60    4.20
   7  -2   1   12.60    3.10
   4  -7  -1   19.40    3.10
   4  -7  -1   17.40    3.40
   3   4  -1   20.80    2.60
  -7   3  -1   17.70    4.10
   7  -3   1   18.80    2.60
  -3  -4   1   24.30    2.90
   7  -3   1   18.50    3.90
  -3  -4   1   25.10    3.40
  -4   7   1   12.20    4.70
  -3  -4   1   20.10    4.10
  -4   7   1   26.30    3.70
  -7   4  -1   21.00    4.20
   3  -7  -1   20.10    3.00
   4   3  -1   22.60    3.30
   3  -7  -1   20.90    3.50
  -4  -3   1   22.30    3.00
  -4  -3   1   19.60    4.90
  -3   7   1   19.00    2.00
  -4  -3   1   17.90    3.30
  -3   7   1   14.20    3.20
   7  -4   1   13.90    2.60
   7  -4   1   17.20    3.90
   5   2  -1   27.30    3.80
   5   2  -1   13.30    3.10
   2  -7  -1   15.40    2.70
   5   2  -1   16.70    3.00
  -7   5  -1   16.20    4.40
   7  -5   1   12.60    3.80
  -5  -2   1   21.70    3.20
   7  -5   1    9.50    2.80
  -5  -2   1   15.90    5.60
  -5  -2   1   12.70    3.00
  -7   6  -1  104.19    7.40
   6   1  -1   89.39    5.60
   6   1  -1   98.19    5.90
   1  -7  -1   93.79    4.90
   6   1  -1   99.99    6.70
   7  -6   1  102.29    6.70
  -6  -1   1  109.19   10.60
  -6  -1   1   96.39    5.70
   7  -6   1   93.19    5.80
  -7   7  -1   -0.60    5.10
   7   0  -1    5.00    3.70
   7   0  -1    5.00    3.10
   7   0  -1    4.20    4.40
   0  -7  -1    0.60    2.60
   7  -7   1   -0.60    4.10
  -7   0   1    0.30    3.30
   7  -7   1    4.60    3.50
  -7   0   1    9.70    6.90
   8  -1  -1    4.30    5.10
  -1  -7  -1    8.20    3.20
  -7   8  -1    2.50    6.10
   8  -1  -1    5.90    4.70
   8  -1  -1   -2.30    3.60
  -8   1   1   -2.00    9.10
  -8   1   1    3.00    3.80
   7  -8   1    1.10    4.30
   7  -8   1   -0.20    4.70
  -7   9  -1    5.90    5.70
   9  -2  -1    5.50    4.40
  -2  -7  -1    2.50    4.40
   9  -2  -1   12.00    6.40
   7  -9   1    2.20    5.70
  -9   2   1    6.80   10.00
  -9   2   1    5.90    4.80
   7  -9   1    2.00    5.50
  10  -3  -1   17.00    6.20
  -3  -7  -1   28.00    5.10
  10  -3  -1   20.50    8.30
  -3  -7  -1   29.60    6.10
 -10   3   1   27.50   13.20
   7 -10   1   12.40    6.80
   7 -10   1   22.20    6.80
  10  -8  -1    4.30    7.70
  10  -8  -1    6.50    6.50
  -8  -2  -1   10.40   11.20
 -10   8   1    9.20   14.80
   2 -10   1   -3.80    6.10
   9  -8  -1   12.50    5.60
   9  -8  -1   10.00    6.50
  -8  -1  -1   23.60   11.00
  -9   8   1   14.50   11.80
   1  -9   1   14.10    5.20
  -8   0  -1  149.99    7.10
   8  -8  -1  122.49    9.10
  -8   0  -1  155.18   12.90
   8  -8  -1  136.79    9.60
   8   0   1  143.99    7.00
   0  -8   1  146.89    8.30
   8   0   1  160.88    7.20
  -8   8   1  167.58   15.90
   8   0   1  141.99    7.50
   7  -8  -1    0.60    4.50
   1   7  -1    4.10    4.30
   7  -8  -1   -1.70    4.60
  -8   1  -1    1.30    5.50
   8  -1   1   -8.30    3.70
  -1  -7   1    1.80    2.20
  -1  -7   1    2.70    3.70
  -7   8   1    4.00    7.60
   8  -1   1    5.90    3.00
  -1  -7   1    7.10    5.10
   8  -1   1    5.80    4.40
   6  -8  -1  225.18    9.50
   2   6  -1  230.18    7.80
   6  -8  -1  232.88    9.20
  -8   2  -1  239.68    8.60
   8  -2   1  230.98    8.10
  -2  -6   1  229.18    8.40
  -2  -6   1  249.48    9.70
  -2  -6   1  227.18    8.30
   8  -2   1  222.28   10.00
   8  -2   1  239.78    9.00
  -6   8   1  229.78   10.80
  -6   8   1  242.38   12.40
   5  -8  -1  102.49    7.20
   5  -8  -1   97.99    6.60
   3   5  -1  110.19    5.60
  -8   3  -1  116.79    8.30
  -3  -5   1  113.09    7.30
  -3  -5   1  103.19    7.20
  -5   8   1   92.79    8.00
   8  -3   1  113.69    6.10
  -5   8   1  117.59    8.10
   8  -3   1  118.79    7.90
   8  -3   1  110.59    6.50
   4  -8  -1   -6.70    5.50
   4   4  -1   -2.00    3.40
   4  -8  -1   -1.20    3.70
  -8   4  -1    1.80    4.80
  -4  -4   1   -5.70    4.70
  -4  -4   1    1.20    3.70
   8  -4   1   -1.80    5.10
   8  -4   1   -1.30    2.80
  -4   8   1    0.90    2.80
  -4   8   1   -2.40    1.80
  -4   8   1   -6.50    4.20
  -8   5  -1  118.99    8.70
   3  -8  -1  115.59    6.20
   5   3  -1  115.29    5.90
   3  -8  -1  112.09    7.50
   5   3  -1  118.29    6.80
   8  -5   1  105.59    7.90
   8  -5   1   92.19    6.20
  -5  -3   1   97.39   10.10
  -5  -3   1  100.99    6.60
  -5  -3   1  107.99    6.40
   6   2  -1  226.58    8.50
   6   2  -1  240.58    9.40
   2  -8  -1  234.98    8.30
  -6  -2   1  238.18    8.90
  -6  -2   1  223.68   13.50
   8  -6   1  234.98   10.20
   8  -6   1  190.88   10.90
   1  -8  -1    4.00    3.40
   7   1  -1    9.80    4.80
   7   1  -1   -4.20    3.50
   7   1  -1   -0.90    4.10
   8  -7   1   10.20    5.20
   8  -7   1    4.00    4.20
  -7  -1   1    2.40    3.70
  -7  -1   1    1.00    8.60
   8   0  -1  148.49   12.00
   8   0  -1  142.29    8.90
   0  -8  -1  123.09    8.80
   8   0  -1  134.69    8.20
  -8   0   1  139.19    8.30
   8  -8   1  151.08   10.50
  -8   0   1  137.09   12.30
   8  -8   1  134.49    9.10
   9  -1  -1   13.80    5.00
  -1  -8  -1   19.20    6.10
   9  -1  -1   17.50    6.40
   9  -1  -1   20.40    6.80
  -1  -8  -1   17.30    4.60
   8  -9   1   28.00    6.80
  -9   1   1   10.60    5.40
   8  -9   1   12.00    5.90
  -9   1   1   20.60   10.80
  10  -2  -1   -1.20    7.80
  10  -2  -1   -0.60    6.10
  -2  -8  -1    0.00    5.30
 -10   2   1    9.80   13.60
   8 -10   1    9.00    6.60
   8 -10   1    2.60    8.00
   9  -9  -1    2.10    6.20
  -9   0  -1   16.10   12.70
   9  -9  -1   -5.50    7.50
   0  -9   1   -3.50    5.50
  -9   9   1   -6.50   12.70
   9   0   1   -6.60    5.10
  -9   1  -1    2.80   11.40
  -9   1  -1   23.00    4.80
   8  -9  -1   18.70    6.20
   8  -9  -1    7.20    6.40
   9  -1   1   24.10    5.00
   9  -1   1   17.60    5.40
  -8   9   1   10.00   10.30
   9  -1   1   16.40    4.20
  -1  -8   1   16.00    5.20
   7  -9  -1   -0.20    5.50
  -9   2  -1    9.20    4.40
   7  -9  -1    5.10    5.30
   2   7  -1    6.20    3.30
   9  -2   1    6.20    5.50
   9  -2   1    6.90    5.00
  -2  -7   1   12.10    4.60
   9  -2   1    5.40    3.70
  -7   9   1   -3.00    8.00
  -2  -7   1    4.00    3.20
   3   6  -1   10.90    3.20
   6  -9  -1    5.90    5.00
   6  -9  -1    4.70    4.70
   3   6  -1    6.00    3.50
   9  -3   1    5.70    4.00
  -3  -6   1    4.00    5.20
   9  -3   1    5.70    5.90
   9  -3   1   -0.70    4.90
  -6   9   1    7.80    6.40
  -3  -6   1    4.50    4.40
  -3  -6   1   12.40    4.20
   5  -9  -1   11.50    5.10
   4   5  -1    3.80    4.30
   5  -9  -1    8.10    4.40
   4   5  -1    8.00    3.50
  -5   9   1   11.30    4.50
  -5   9   1    4.30    2.60
   9  -4   1    1.30    5.80
  -4  -5   1   12.70    4.00
   9  -4   1    4.40    4.00
  -4  -5   1   10.20    5.00
  -4  -5   1   10.50    5.70
   5   4  -1   10.00    3.90
   4  -9  -1    4.50    4.80
   5   4  -1    9.20    3.60
   4  -9  -1    8.70    4.20
  -5  -4   1   16.60    6.70
  -5  -4   1    9.80    4.10
  -5  -4   1   15.30    4.40
   9  -5   1   10.70    5.90
   3  -9  -1    8.90    4.10
   6   3  -1   10.20    3.80
   6   3  -1   13.20    4.40
   3  -9  -1    2.10    5.60
  -6  -3   1    4.90    4.10
   9  -6   1    6.70    4.30
  -6  -3   1   -1.60    7.90
  -6  -3   1   10.80    4.40
   9  -6   1    8.60    6.20
   7   2  -1    8.20    4.50
   2  -9  -1    9.60    4.20
   7   2  -1   12.80    4.90
   9  -7   1   12.10    5.00
  -7  -2   1   20.10    9.30
  -7  -2   1   14.90    4.60
   9  -7   1    4.70    6.30
   8   1  -1   15.80    5.60
   8   1  -1   15.10    5.30
   8   1  -1   12.10    5.80
   1  -9  -1   19.00    4.70
   9  -8   1    8.80    5.60
  -8  -1   1   22.40    5.10
  -8  -1   1   24.10   11.50
   9  -8   1    3.80    6.90
   9   0  -1    8.20    5.40
   9   0  -1   13.30    6.90
   9   0  -1   -5.10    6.10
   0  -9  -1   10.70    5.00
   9  -9   1    8.30    7.70
  -9   0   1    2.30   12.60
   9  -9   1   13.70    6.50
  -9   0   1   -1.00    6.00
 -10   2  -1    2.10   12.70
   8 -10  -1   -4.00    7.30
   8 -10  -1    5.50    7.00
  -8  10   1   -8.40   13.30
  10  -2   1    3.50    6.30
  10  -2   1   -2.00    4.80
  -2  -8   1    7.70    6.10
   7 -10  -1   25.20    6.80
   7 -10  -1   30.10    6.80
 -10   3  -1   42.20   13.70
  10  -3   1   11.60    6.90
  -3  -7   1   25.30    5.70
  -7  10   1   32.80    8.60
  10  -3   1   34.10    5.30
   6 -10  -1   81.89    7.00
   6 -10  -1   80.49    8.00
  -4  -6   1   75.99    6.20
  10  -4   1   65.99    6.20
  10  -4   1   72.79    8.30
  -4  -6   1   65.29    7.20
   5 -10  -1    3.10    5.40
   5 -10  -1    7.80    6.40
  10  -5   1    0.30    7.60
  10  -5   1    7.10    5.40
  -5  -5   1    2.50    5.10
  -5  -5   1    0.10    5.90
  -5  -5   1    6.90    7.90
   4 -10  -1   73.19    6.40
   4 -10  -1   56.19    6.80
  -6  -4   1   71.39    6.50
  -6  -4   1   78.29   10.10
  10  -6   1   84.59    9.00
  10  -6   1   62.89    6.40
  -6  -4   1   43.60    6.30
   3 -10  -1   21.50    5.60
   3 -10  -1   13.40    6.90
  -7  -3   1   19.50    6.10
  10  -7   1   37.30    8.50
  10  -7   1   16.90    5.60
  -7  -3   1   17.20   10.60
   2 -10  -1   -1.30    6.80
   2 -10  -1   -5.80    5.50
  10  -8   1    4.90    8.70
  -8  -2   1   10.40   12.20
  10  -8   1   -2.80    5.90
   0   0  -2 1911.91   45.70
   0   0  -2 1986.50   45.60
   0   0  -2 1850.01   45.60
   0   0   2 1792.82   45.20
   0   0   2 1898.21   45.80
   0   0   2 1821.92   45.60
   0   1  -2 1157.38   28.50
  -1   0  -2 1150.08   27.90
   1  -1  -2 1183.28   28.60
   0   1  -2 1170.38   28.10
  -1   0  -2 1138.59   27.90
  -1   0  -2 1159.38   28.40
   1  -1  -2 1135.09   28.20
   1   0   2 1184.58   28.30
  -1   1   2 1163.48   28.10
   1   0   2 1132.29   27.90
   0  -1   2 1174.58   28.50
   0  -1   2 1130.49   28.10
   0  -1   2 1154.58   28.20
  -1   1   2 1161.68   28.60
  -1   1  -2 1170.28   28.20
   0  -1  -2 1063.39   27.90
  -1   1  -2 1138.89   27.90
   1   0  -2 1144.39   28.00
   1   0  -2 1163.28   27.90
   1   0  -2 1172.18   28.50
   0  -1  -2 1173.78   28.20
   1  -1   2 1158.58   28.20
   0   1   2 1127.69   27.70
  -1   0   2 1143.49   28.50
   1  -1   2 1162.18   27.80
   0   1   2 1157.48   28.10
   1  -1   2 1151.18   27.90
  -1   0   2 1130.69   27.90
  -1   0   2 1166.28   28.00
  -1   2  -2 4464.35  107.59
  -1  -1  -2 4571.84  107.99
   2  -1  -2 4198.78  106.49
   2  -1  -2 4484.85  107.79
  -1   2  -2 4543.15  107.29
  -1  -1  -2 4245.78  105.79
  -2   1   2 4592.94  107.49
   1  -2   2 4482.95  106.99
  -2   1   2 4277.87  106.49
   1  -2   2 4185.48  105.99
   3  -2  -2  652.83   16.70
   3  -2  -2  660.53   17.70
  -2  -1  -2  647.14   16.00
  -1   3  -2  663.93   16.80
  -1   3  -2  678.63   16.60
  -3   2   2  632.84   17.80
  -3   2   2  687.73   16.70
   1  -3   2  651.33   16.70
   1  -3   2  650.53   16.60
  -2   0  -2 5916.81  140.79
   2  -2  -2 6040.70  141.99
   2  -2  -2 5819.32  141.99
   0   2  -2 5699.93  141.29
   0   2  -2 6104.39  141.79
  -2   2   2 5957.20  141.89
   0  -2   2 5901.81  141.49
   0  -2   2 5758.42  140.99
   0  -2   2 5426.76  140.99
   2   0   2 5776.02  139.89
  -2   2   2 5820.02  142.39
   1  -2  -2 4415.36  107.69
  -2   1  -2 4226.78  106.69
   1  -2  -2 4530.85  108.49
  -2   1  -2 4478.05  107.69
   1   1  -2 4490.95  108.09
   1   1  -2 4664.23  107.79
   1   1  -2 4348.06  107.49
  -1   2   2 4388.16  107.79
  -1  -1   2 4574.14  107.69
  -1  -1   2 4332.17  106.99
  -1   2   2 4472.95  106.99
  -1  -1   2 4278.77  106.99
   2  -1   2 4431.86  107.19
  -2   2  -2 5904.51  141.69
   0  -2  -2 5877.01  142.19
   2   0  -2 5933.91  141.29
   2   0  -2 5860.31  142.59
   0  -2  -2 5892.11  141.19
   2   0  -2 5514.35  140.89
  -2   2  -2 6013.60  142.99
  -2   0   2 5274.27  140.89
  -2   0   2 5933.01  141.89
  -2   0   2 6096.79  142.19
   0   2   2 6024.10  141.39
   2  -2   2 5778.72  141.59
   3  -1  -2  652.73   16.80
  -1  -2  -2  681.63   16.60
   3  -1  -2  684.83   18.10
  -2   3  -2  668.43   17.00
  -2   3  -2  688.93   16.80
   3  -1  -2  649.14   16.90
  -1  -2  -2  662.13   16.40
   2  -3   2  653.23   16.80
  -3   1   2  659.63   18.20
  -3   1   2  672.33   16.90
   4  -2  -2  487.95   13.20
  -2  -2  -2  503.45   12.30
   4  -2  -2  497.35   13.40
  -2  -2  -2  508.85   12.40
  -2   4  -2  509.05   13.30
  -2  -2  -2  513.95   12.30
  -2   4  -2  504.45   13.10
  -4   2   2  509.75   13.20
  -4   2   2  478.15   15.00
   2  -4   2  507.05   13.10
  -2   5  -2  654.53   16.80
   5  -3  -2  656.23   16.90
  -3  -2  -2  659.83   15.80
  -3  -2  -2  636.94   16.00
   5  -3  -2  616.54   17.00
  -2   5  -2  627.24   16.60
  -3  -2  -2  648.74   15.90
   2  -5   2  626.14   16.60
  -5   3   2  652.33   16.80
  -5   3   2  626.04   19.30
   4  -3  -2  505.75   13.60
  -1   4  -2  528.15   13.80
  -1   4  -2  538.45   13.60
  -3  -1  -2  524.75   12.60
  -3  -1  -2  517.45   13.10
   4  -3  -2  527.75   13.90
   1  -4   2  514.95   13.50
  -4   3   2  497.85   15.40
   1  -4   2  528.55   13.60
   0   3  -2 2540.85   61.09
   3  -3  -2 2449.55   61.19
   0   3  -2 2538.55   61.49
   3  -3  -2 2482.05   61.19
  -3   0  -2 2506.05   60.79
  -3   3   2 2567.04   61.19
   3   0   2 2568.34   60.89
  -3   3   2 2524.85   61.99
   0  -3   2 2513.85   61.29
   0  -3   2 2490.25   61.09
   3   0   2 2563.44   60.49
   0  -3   2 2520.55   61.29
   2  -3  -2  648.14   16.50
   1   2  -2  669.63   16.60
   1   2  -2  680.73   17.30
  -3   1  -2  680.53   16.50
   2  -3  -2  639.54   16.70
   2  -3  -2  673.33   17.10
   3  -1   2  657.53   16.30
  -2   3   2  669.93   16.70
  -1  -2   2  662.63   17.20
  -1  -2   2  618.54   16.60
  -2   3   2  657.43   17.00
  -1  -2   2  675.23   16.90
  -3   2  -2  659.63   16.50
   1  -3  -2  657.13   16.50
   2   1  -2  636.94   16.80
   1  -3  -2  645.04   16.60
   2   1  -2  682.93   16.60
   2   1  -2  668.83   17.50
  -2  -1   2  685.43   16.80
  -2  -1   2  664.93   17.60
  -1   3   2  656.83   16.40
   3  -2   2  662.23   16.50
  -2  -1   2  638.24   16.60
  -3   3  -2 2504.45   61.09
   3   0  -2 2488.85   61.29
   0  -3  -2 2510.85   60.89
   3   0  -2 2559.94   61.09
   3   0  -2 2556.64   62.29
  -3   3  -2 2591.04   61.49
   0  -3  -2 2520.95   60.79
  -3   0   2 2449.66   62.39
   3  -3   2 2522.15   61.19
  -3   0   2 2526.95   61.19
  -3   4  -2  534.65   13.90
  -1  -3  -2  537.15   13.50
   4  -1  -2  521.05   14.00
   4  -1  -2  547.45   13.90
  -3   4  -2  543.55   14.10
  -4   1   2  506.95   15.70
  -4   1   2  542.95   14.00
   3  -4   2  533.05   13.90
   5  -2  -2  657.23   16.90
  -2  -3  -2  649.74   16.00
   5  -2  -2  656.43   17.00
  -3   5  -2  666.53   17.10
   5  -2  -2  653.63   17.40
  -3   5  -2  662.13   17.00
   3  -5   2  624.44   16.90
  -5   2   2  614.54   19.50
  -5   2   2  659.23   17.00
  -3   6  -2 1520.95   37.90
  -3  -3  -2 1527.05   37.00
  -3  -3  -2 1508.45   37.00
  -3   6  -2 1560.14   37.90
   6  -3  -2 1514.05   38.00
   6  -3  -2 1521.05   38.30
   3  -6   2 1491.35   37.80
  -6   3   2 1532.45   38.00
  -6   3   2 1506.95   40.80
   7  -4  -2  158.88    7.70
  -4  -3  -2  155.98    5.10
  -3   7  -2  137.89    6.70
  -4  -3  -2  150.88    5.40
   7  -4  -2  144.69    7.00
  -3   7  -2  148.29    7.40
  -7   4   2  172.78   12.20
   3  -7   2  133.59    7.10
  -7   4   2  143.69    7.10
  -4  -2  -2 1433.46   34.90
   6  -4  -2 1426.36   36.30
   6  -4  -2 1441.56   36.10
  -4  -2  -2 1428.66   35.20
  -2   6  -2 1439.06   35.90
  -2   6  -2 1492.85   35.90
  -6   4   2 1404.46   38.80
   2  -6   2 1411.76   35.90
  -6   4   2 1472.25   36.10
   5  -4  -2 1574.24   39.60
  -4  -1  -2 1573.24   38.90
  -4  -1  -2 1546.95   38.30
  -1   5  -2 1617.94   39.40
  -1   5  -2 1627.74   39.20
   5  -4  -2 1570.34   39.40
   1  -5   2 1584.34   39.20
   1  -5   2 1631.34   39.00
  -5   4   2 1627.24   39.50
  -5   4   2 1530.95   41.30
   4  -4  -2 2742.03   66.89
   0   4  -2 2790.82   66.69
   4  -4  -2 2730.33   66.89
  -4   0  -2 2722.63   66.49
   0   4  -2 2788.02   67.09
  -4   4   2 2726.13   66.89
   0  -4   2 2767.72   66.79
   0  -4   2 2726.33   66.69
   4   0   2 2670.03   65.99
   4   0   2 2731.63   66.09
   0  -4   2 2842.12   66.99
   4   0   2 2758.72   65.99
  -4   4   2 2745.23   68.09
   3  -4  -2  515.85   13.60
   1   3  -2  534.05   13.50
   1   3  -2  507.25   14.20
  -4   1  -2  518.65   13.40
   3  -4  -2  518.05   13.50
  -3   4   2  533.15   13.80
  -1  -3   2  529.65   14.00
   4  -1   2  520.75   13.20
  -3   4   2  509.45   14.30
   4  -1   2  520.15   12.90
  -1  -3   2  515.15   13.50
  -1  -3   2  516.55   13.90
   2  -4  -2  507.65   13.30
  -4   2  -2  509.05   13.20
   2   2  -2  516.15   13.20
   2   2  -2  484.45   13.40
   2   2  -2  509.55   14.30
   2  -4  -2  491.95   12.90
  -2   4   2  502.25   13.10
  -2  -2   2  503.95   14.20
  -2  -2   2  533.25   13.50
   4  -2   2  508.65   13.10
   4  -2   2  525.05   12.80
  -2  -2   2  503.15   13.20
  -4   3  -2  524.85   13.60
   1  -4  -2  508.55   13.00
   3   1  -2  518.05   13.70
   3   1  -2  522.75   13.60
   1  -4  -2  508.75   13.00
   1  -4  -2  534.15   13.50
   3   1  -2  525.35   15.00
   4  -3   2  518.45   13.60
  -3  -1   2  511.65   13.50
  -3  -1   2  493.45   14.90
  -1   4   2  519.35   12.80
   4  -3   2  542.45   13.40
  -3  -1   2  527.45   13.70
   4   0  -2 2586.94   65.99
   0  -4  -2 2710.83   64.79
  -4   4  -2 2807.32   65.69
   0  -4  -2 2739.73   64.89
   0  -4  -2 2738.23   65.49
   4   0  -2 2714.43   65.79
   4  -4   2 2734.13   65.69
  -4   0   2 2813.42   67.39
  -4   0   2 2451.85   66.69
   5  -1  -2 1604.84   39.10
   5  -1  -2 1573.04   39.20
  -4   5  -2 1560.34   39.20
  -1  -4  -2 1576.94   38.40
   5  -1  -2 1635.74   39.60
  -1  -4  -2 1570.74   38.20
  -4   5  -2 1412.36   39.90
   4  -5   2 1633.54   39.30
  -5   1   2 1634.44   41.60
  -5   1   2 1635.04   39.20
  -2  -4  -2 1408.56   35.10
  -2  -4  -2 1446.66   35.20
   6  -2  -2 1420.16   35.90
  -4   6  -2 1458.65   36.00
  -4   6  -2 1424.36   35.80
   6  -2  -2 1422.86   35.70
   6  -2  -2 1430.66   36.30
  -2  -4  -2 1414.06   34.90
  -6   2   2 1466.15   38.90
  -6   2   2 1457.35   35.90
   4  -6   2 1426.96   35.90
   7  -3  -2  119.59   10.80
   7  -3  -2  131.59    6.60
  -3  -4  -2  147.49    5.40
  -4   7  -2  151.38    6.70
  -4   7  -2  132.79    6.90
  -3  -4  -2  138.79    7.00
   7  -3  -2  149.09    6.70
  -3  -4  -2  142.19    5.00
  -7   3   2  148.59    6.90
   4  -7   2  134.39    6.60
  -7   3   2  159.98   13.00
   8  -4  -2   30.90    5.50
  -4  -4  -2   29.60    3.10
   8  -4  -2   36.40    4.70
  -4   8  -2   22.80    4.10
  -4  -4  -2   29.60    5.30
  -4  -4  -2   26.70    3.00
  -4   8  -2   21.90    4.90
  -8   4   2   29.70    4.80
  -8   4   2   41.30    9.50
   4  -8   2   17.80    3.90
  -5  -4  -2  137.29   11.20
  -4   9  -2  128.89    9.80
   9  -5  -2  135.59    9.80
   9  -5  -2  156.18   10.60
  -5  -4  -2  146.59    6.90
  -5  -4  -2  133.39    6.20
  -9   5   2  137.49   13.30
   4  -9   2  156.88    8.70
  -5  -3  -2   76.79    4.20
   8  -5  -2   77.29    6.10
  -3   8  -2   80.59    7.50
   8  -5  -2   76.09    7.10
  -5  -3  -2   78.09    5.10
  -3   8  -2   72.79    6.30
   3  -8   2   88.09    6.40
  -8   5   2   71.09   10.00
  -8   5   2   78.59    6.20
  -5  -2  -2  370.06    9.80
  -2   7  -2  365.56   11.40
  -2   7  -2  383.46   11.70
   7  -5  -2  373.46   12.10
  -7   5   2  384.16   12.00
   2  -7   2  366.56   11.40
  -7   5   2  388.26   16.40
   6  -5  -2  142.99    6.30
  -5  -1  -2  142.59    4.40
  -1   6  -2  146.09    6.50
   6  -5  -2  146.19    6.90
  -5  -1  -2  147.49    5.90
  -1   6  -2  146.69    6.10
  -6   5   2  137.39    6.60
  -6   5   2  148.99   10.30
   1  -6   2  148.29    6.00
   5  -5  -2  316.47    9.60
  -5   0  -2  307.67    9.20
   5  -5  -2  311.57    9.60
  -5   0  -2  322.87    8.20
   0   5  -2  315.87    9.80
   0   5  -2  314.47    9.20
   0  -5   2  313.07    9.10
   5   0   2  320.77    8.30
   5   0   2  304.07    8.30
  -5   5   2  316.37   11.90
  -5   5   2  305.77    9.60
   5   0   2  316.07    8.20
   0  -5   2  326.47   10.00
   0  -5   2  306.37    9.20
   1   4  -2 1601.24   39.80
   4  -5  -2 1560.74   39.50
  -5   1  -2 1591.14   39.20
   4  -5  -2 1628.64   39.40
  -4   5   2 1571.54   40.30
   5  -1   2 1614.24   38.80
  -1  -4   2 1633.64   39.60
  -1  -4   2 1598.54   39.50
   5  -1   2 1552.94   38.60
   5  -1   2 1593.14   38.90
  -1  -4   2 1561.34   39.20
   3  -5  -2  644.84   16.50
   2   3  -2  612.84   16.90
   2   3  -2  619.64   17.70
  -5   2  -2  635.14   16.90
   3  -5  -2  648.24   16.80
  -2  -3   2  661.13   17.50
  -2  -3   2  672.63   16.90
  -3   5   2  627.14   16.80
  -2  -3   2  653.33   16.60
   5  -2   2  642.54   16.10
   5  -2   2  637.74   16.60
   3   2  -2  629.94   19.60
   2  -5  -2  648.04   16.40
  -5   3  -2  663.43   17.00
   2  -5  -2  662.33   17.00
   3   2  -2  626.84   17.10
  -3  -2   2  664.03   17.10
   5  -3   2  664.13   17.00
  -3  -2   2  651.53   16.80
   5  -3   2  665.13   16.50
  -3  -2   2  619.14   18.10
   1  -5  -2 1584.74   38.90
   1  -5  -2 1590.14   39.50
  -5   4  -2 1604.94   39.70
   4   1  -2 1649.23   39.50
   4   1  -2 1579.14   39.70
   5  -4   2 1619.14   39.70
  -4  -1   2 1582.54   39.50
  -4  -1   2 1641.04   39.60
  -4  -1   2 1564.74   41.20
   5  -4   2 1592.14   39.40
   5   0  -2  304.67    9.30
   5   0  -2  311.07    9.80
   0  -5  -2  320.77    8.20
   5   0  -2  322.37    9.30
  -5   5  -2  295.97    9.50
  -5   0   2  300.17    9.30
   5  -5   2  305.37    9.40
  -5   0   2  306.97   12.30
   5  -5   2  309.47    9.30
  -5   6  -2  141.49    6.70
   6  -1  -2  140.39    6.20
   6  -1  -2  151.68    6.40
   6  -1  -2  153.58    7.10
  -5   6  -2  143.09    6.70
  -1  -5  -2  142.09    4.70
  -6   1   2  148.49    6.20
   5  -6   2  134.89    6.30
  -6   1   2  153.48   10.70
  -2  -5  -2  383.06   10.10
  -2  -5  -2  374.76   10.80
  -5   7  -2  354.06   11.80
  -5   7  -2  360.56   11.70
   7  -2  -2  370.46   11.60
  -2  -5  -2  368.16    9.90
   7  -2  -2  377.76   11.60
  -2  -5  -2  354.36   10.40
  -7   2   2  382.86   11.60
  -7   2   2  386.46   16.30
   5  -7   2  384.26   11.60
  -5   8  -2   79.49    6.90
  -3  -5  -2   66.99    6.10
   8  -3  -2   59.89    5.50
   8  -3  -2   71.49    7.10
  -3  -5  -2   70.79    4.60
  -5   8  -2   72.39    6.00
   8  -3  -2   70.89    6.20
  -3  -5  -2   76.39    4.90
  -8   3   2   80.69    7.00
   5  -8   2   57.29    5.40
  -8   3   2   64.99    9.90
  -5   9  -2  135.59    8.50
   9  -4  -2  154.78    9.40
  -4  -5  -2  119.39    9.20
   9  -4  -2  158.78   10.40
  -4  -5  -2  145.19    7.10
  -5   9  -2  141.89    9.90
  -4  -5  -2  146.29    6.70
  -9   4   2  145.39   13.40
   5  -9   2  133.89    8.90
  10  -5  -2  198.88   12.20
  10  -5  -2  224.08   13.80
  -5  -5  -2  200.68    9.30
  -5  -5  -2  209.98   12.90
 -10   5   2  220.68   18.40
   5 -10   2  207.58   11.40
  10  -6  -2  134.59   10.40
  10  -6  -2  135.99   11.60
  -6  -4  -2  112.19   10.90
 -10   6   2  154.08   16.60
   4 -10   2  146.79   10.40
  -6  -3  -2  194.38    7.00
   9  -6  -2  216.18   11.70
  -3   9  -2  195.18   10.50
  -3   9  -2  209.78    8.90
   9  -6  -2  210.68   10.60
  -6  -3  -2  203.78   13.70
  -9   6   2  236.38   19.60
   3  -9   2  199.48    9.70
  -2   8  -2  453.95   13.50
   8  -6  -2  469.15   14.50
  -2   8  -2  445.86   14.00
   8  -6  -2  464.75   14.70
  -6  -2  -2  447.16   12.00
  -8   6   2  479.85   20.50
   2  -8   2  449.95   13.80
   7  -6  -2  180.98    8.30
  -1   7  -2  177.78    7.70
  -6  -1  -2  166.08    5.40
  -1   7  -2  164.88    7.40
   7  -6  -2  161.48    7.70
   1  -7   2  172.18    7.40
  -7   6   2  161.98   12.90
   6  -6  -2   66.59    5.50
  -6   0  -2   72.99    3.50
  -6   0  -2   65.39    5.60
   0   6  -2   63.19    5.70
   0   6  -2   72.29    5.20
   6  -6  -2   63.29    6.10
   0  -6   2   65.09    5.00
  -6   6   2   67.79    7.30
   0  -6   2   73.09    6.60
   6   0   2   69.69    3.40
   6   0   2   68.09    3.20
   6   0   2   69.89    3.60
   0  -6   2   67.49    4.30
   1   5  -2  147.79    5.90
   5  -6  -2  150.98    6.30
   1   5  -2  144.79    7.40
  -6   1  -2  138.09    6.30
  -1  -5   2  147.79    6.20
   6  -1   2  145.99    5.70
  -5   6   2  146.59    8.90
   6  -1   2  147.29    4.70
  -1  -5   2  142.69    5.90
   6  -1   2  152.58    5.30
  -1  -5   2  149.59    6.70
   2   4  -2 1483.95   35.40
   2   4  -2 1451.45   36.60
   4  -6  -2 1405.76   35.90
   4  -6  -2 1457.65   35.50
  -6   2  -2 1408.76   35.70
  -4   6   2 1415.66   36.20
  -2  -4   2 1447.86   35.90
  -2  -4   2 1388.56   36.10
   6  -2   2 1427.56   35.50
  -2  -4   2 1413.46   35.60
   6  -2   2 1404.16   34.90
   3  -6  -2 1466.15   37.60
   3  -6  -2 1490.75   37.10
   3   3  -2 1512.15   37.20
  -6   3  -2 1524.85   37.60
   3   3  -2 1549.05   38.80
  -3   6   2 1468.05   37.00
   6  -3   2 1506.45   37.50
  -3  -3   2 1515.75   37.60
   6  -3   2 1499.65   37.00
  -3  -3   2 1493.65   38.50
  -3  -3   2 1521.55   37.40
  -6   4  -2 1441.26   36.30
   2  -6  -2 1429.26   36.20
   2  -6  -2 1442.46   35.60
   4   2  -2 1479.75   36.00
   4   2  -2 1430.26   36.30
   6  -4   2 1447.06   35.90
   6  -4   2 1444.96   36.30
  -4  -2   2 1456.85   36.20
  -4  -2   2 1477.95   37.80
  -4  -2   2 1436.46   36.10
   1  -6  -2  145.89    6.40
  -6   5  -2  145.39    6.70
   5   1  -2  150.18    6.30
   1  -6  -2  150.58    5.10
   5   1  -2  147.79    6.30
   5   1  -2  152.38    7.00
  -5  -1   2  148.29    6.30
   6  -5   2  146.39    6.00
  -5  -1   2  152.08    9.70
   6  -5   2  148.29    6.70
   0  -6  -2   68.19    3.60
  -6   6  -2   67.59    6.10
   6   0  -2   63.69    5.00
   6   0  -2   60.79    5.10
   6   0  -2   66.09    5.40
   6  -6   2   68.99    5.10
  -6   0   2   65.39    5.30
  -6   0   2   78.19    8.00
   7  -1  -2  169.68    7.80
   7  -1  -2  153.88   11.10
  -6   7  -2  181.68    8.60
  -6   7  -2  175.38    8.60
   7  -1  -2  168.38    7.50
  -1  -6  -2  165.18    5.90
  -7   1   2  155.08   13.20
   6  -7   2  172.38    8.00
  -7   1   2  161.78    7.80
   6  -7   2  168.38    7.70
  -2  -6  -2  466.35   12.50
  -2  -6  -2  465.65   13.20
   8  -2  -2  435.76   14.20
   8  -2  -2  444.46   14.20
  -6   8  -2  457.55   14.50
   8  -2  -2  450.05   15.00
  -6   8  -2  401.96   15.00
   6  -8   2  453.75   14.20
   6  -8   2  451.95   14.50
  -8   2   2  453.65   14.20
  -8   2   2  506.15   20.40
  -3  -6  -2  182.18    7.40
   9  -3  -2  203.28   10.20
   9  -3  -2  224.78   12.30
  -3  -6  -2  206.78    8.60
  -3  -6  -2  189.18    7.60
  -6   9  -2  196.98   10.30
  -3  -6  -2  186.18    6.70
  -9   3   2  240.98   18.60
   6  -9   2  174.38   10.10
   6  -9   2  194.48   10.90
  10  -4  -2  144.19   11.60
  10  -4  -2  169.58   13.20
  -4  -6  -2  137.39    8.00
   6 -10   2  143.19   12.00
   6 -10   2  153.48   11.20
 -10   4   2  165.08   16.60
  -3  10  -2    4.70    7.40
  -7  -3  -2   23.40   10.20
  10  -7  -2   11.80    7.00
  10  -7  -2   17.10    8.20
 -10   7   2   16.00   15.10
   3 -10   2   13.80    6.50
   9  -7  -2   59.29    7.10
  -7  -2  -2   76.79   10.10
   9  -7  -2   51.89    5.90
  -2   9  -2   60.09    6.20
  -9   7   2   63.19   13.00
   2  -9   2   41.10    6.10
  -1   8  -2  402.26   13.20
   8  -7  -2  407.96   13.90
  -7  -1  -2  376.86   10.90
  -1   8  -2  380.46   12.20
   8  -7  -2  404.36   13.60
  -8   7   2  419.86   19.70
   1  -8   2  404.36   13.00
   7  -7  -2  264.07   10.30
   7  -7  -2  254.57    9.90
   0   7  -2  248.78    9.60
  -7   0  -2  255.47    7.90
   0   7  -2  258.97    9.40
   7   0   2  263.17    7.70
  -7   7   2  259.67   15.20
   0  -7   2  258.47    9.50
   7   0   2  251.17    7.70
   0  -7   2  262.87    8.20
   7   0   2  274.27    7.60
   0  -7   2  242.58   10.80
   6  -7  -2  171.68    7.50
   1   6  -2  182.68    7.30
   1   6  -2  163.18    8.70
   6  -7  -2  170.28    7.80
  -7   1  -2  171.48    8.30
  -6   7   2  197.48   11.30
  -1  -6   2  172.18    6.90
   7  -1   2  171.18    9.00
  -1  -6   2  163.68    8.30
   7  -1   2  173.78    6.90
   7  -1   2  164.58    5.80
  -1  -6   2  166.88    7.20
   5  -7  -2  351.36   12.50
  -7   2  -2  370.66   12.10
   2   5  -2  388.86   11.00
   5  -7  -2  383.06   11.50
   7  -2   2  366.36   11.30
   7  -2   2  373.26   10.80
   7  -2   2  376.16   10.30
  -5   7   2  380.06   13.00
  -2  -5   2  366.96   11.70
  -2  -5   2  386.76   12.00
  -2  -5   2  367.36   11.20
   3   4  -2  143.39    6.20
  -7   3  -2  146.39    7.30
   4  -7  -2  149.59    6.20
   4  -7  -2  139.99    6.90
  -3  -4   2  137.39    8.10
  -3  -4   2  138.39    6.20
  -4   7   2  134.99    6.20
   7  -3   2  148.99    7.00
  -3  -4   2  135.09    7.10
   7  -3   2  143.59    5.30
  -7   4  -2  143.89    7.60
   3  -7  -2  145.69    6.90
   4   3  -2  146.29    6.60
   3  -7  -2  143.49    5.90
  -4  -3   2  137.29    9.10
  -4  -3   2  148.49    6.90
  -4  -3   2  143.49    6.20
   7  -4   2  140.89    7.40
   7  -4   2  144.39    5.80
   2  -7  -2  381.66   10.70
   5   2  -2  369.26   11.60
  -7   5  -2  365.66   12.30
   2  -7  -2  369.76   11.70
   5   2  -2  399.66   12.00
   5   2  -2  387.26   11.40
   7  -5   2  380.76   12.30
   7  -5   2  362.66   11.10
  -5  -2   2  374.46   11.50
  -5  -2   2  363.16   12.00
  -5  -2   2  375.36   14.50
   1  -7  -2  168.88    7.80
  -7   6  -2  179.98    8.90
   6   1  -2  165.88    7.70
   1  -7  -2  173.38    6.20
   6   1  -2  153.08    7.60
   6   1  -2  165.18    8.20
   7  -6   2  164.08    7.20
  -6  -1   2  173.58    7.60
  -6  -1   2  195.18   12.60
   7  -6   2  172.28    8.30
   0  -7  -2  262.77    8.40
   7   0  -2  268.97    9.80
   7   0  -2  272.57   11.00
   7   0  -2  261.17   10.20
  -7   7  -2  255.17   11.20
   7  -7   2  250.87    9.80
  -7   0   2  302.77   15.50
   7  -7   2  265.47   10.70
  -7   0   2  274.97   10.20
   8  -1  -2  433.06   14.40
   8  -1  -2  397.76   13.70
  -7   8  -2  360.46   14.40
   8  -1  -2  393.76   13.30
  -1  -7  -2  385.66   11.40
   7  -8   2  389.66   13.20
   7  -8   2  393.06   13.70
  -8   1   2  382.26   13.10
  -8   1   2  407.86   19.40
  -2  -7  -2   49.20    5.30
   9  -2  -2   58.99    7.80
   9  -2  -2   55.49    5.90
  -2  -7  -2   66.09    4.70
  -7   9  -2   59.29    6.90
   7  -9   2   50.89    7.00
  -9   2   2   71.89   13.40
   7  -9   2   54.59    6.20
  -3  -7  -2    7.40    4.60
  10  -3  -2   15.80    8.80
  10  -3  -2    9.60    6.30
   7 -10   2    8.10    7.10
   7 -10   2   -0.10    7.50
 -10   3   2   29.00   14.90
  -8  -2  -2   12.50   12.30
  10  -8  -2    6.20    6.70
   2 -10   2    6.80    6.70
 -10   8   2  -17.80   15.40
   9  -8  -2   16.90    6.80
   9  -8  -2   12.70    6.20
  -1   9  -2   29.00    5.90
  -8  -1  -2   16.00   10.60
  -9   8   2   24.60   13.10
   1  -9   2   31.70    5.90
   8  -8  -2  252.87   11.10
   8  -8  -2  225.48   10.90
   0   8  -2  222.08   10.10
  -8   8   2  218.58   17.80
   8   0   2  221.18    7.10
   8   0   2  221.28    7.00
   0  -8   2  242.18   10.10
   7  -8  -2  396.36   13.00
   1   7  -2  389.56   12.30
   7  -8  -2  386.56   13.30
  -7   8   2  400.36   17.70
  -1  -7   2  378.46   11.50
   8  -1   2  378.36   11.10
   8  -1   2  401.06   11.50
  -1  -7   2  396.16   12.50
   8  -1   2  382.96   11.70
   2   6  -2  472.35   13.40
   6  -8  -2  449.16   14.30
  -8   2  -2  431.36   14.70
   6  -8  -2  443.06   13.80
   8  -2   2  454.65   13.20
   8  -2   2  435.86   13.80
  -6   8   2  464.85   16.30
  -2  -6   2  448.36   13.70
   8  -2   2  455.35   12.60
  -2  -6   2  465.55   15.10
  -2  -6   2  466.05   13.60
   5  -8  -2   80.79    5.90
   3   5  -2   78.99    6.10
   5  -8  -2   83.39    7.10
  -8   3  -2   77.09    6.40
  -3  -5   2   81.39    7.40
  -3  -5   2   85.59    6.40
   8  -3   2   78.69    5.30
  -3  -5   2   75.19    6.20
   8  -3   2   70.49    5.80
  -5   8   2   74.29    7.10
   4  -8  -2   30.20    4.70
   4  -8  -2   21.00    4.50
   4   4  -2   29.10    4.00
  -8   4  -2   33.00    5.40
  -4  -4   2   22.70    3.90
   8  -4   2   25.70    3.30
  -4  -4   2   29.10    4.90
   8  -4   2   23.50    5.00
  -4   8   2   28.90    3.00
  -4  -4   2   31.40    5.90
   3  -8  -2   82.09    7.10
   3  -8  -2   80.89    5.50
   5   3  -2   83.09    7.20
  -8   5  -2   83.49    6.60
   5   3  -2   83.29    6.60
   8  -5   2   74.99    5.90
  -5  -3   2   78.09    6.00
  -5  -3   2   75.89    7.80
   8  -5   2   84.89    6.40
  -5  -3   2   75.29    6.80
   2  -8  -2  461.75   14.40
   6   2  -2  469.15   17.40
   6   2  -2  469.05   14.70
   2  -8  -2  471.45   13.10
   6   2  -2  463.55   14.00
  -6  -2   2  441.56   14.10
   8  -6   2  440.36   14.20
  -6  -2   2  455.65   18.50
   8  -6   2  453.05   15.20
   7   1  -2  374.76   13.00
   1  -8  -2  396.66   13.30
   7   1  -2  376.66   13.10
   1  -8  -2  407.26   11.80
   7   1  -2  404.56   13.90
   8  -7   2  381.56   14.10
  -7  -1   2  379.86   13.20
  -7  -1   2  433.56   18.90
   8  -7   2  409.56   13.10
   8   0  -2  257.67   12.00
   0  -8  -2  242.48    8.70
   8   0  -2  233.58   10.70
   8   0  -2  231.68   11.10
   0  -8  -2  222.28   10.80
  -8   0   2  229.88   10.70
  -8   0   2  214.28   18.20
   8  -8   2  227.78   11.80
   8  -8   2  223.48   10.80
   9  -1  -2   11.10    5.50
   9  -1  -2   29.40    7.40
   8  -9   2   19.30    6.40
  -9   1   2   10.20   12.90
   8  -9   2   13.50    6.90
  10  -2  -2    9.50    8.60
  -2  -8  -2    9.20    5.20
  10  -2  -2    7.20    6.60
 -10   2   2    4.10   15.20
   8 -10   2   -2.40    6.70
  -9   0  -2   35.90   13.20
   9  -9  -2   18.40    7.00
   9  -9  -2   18.50    7.40
  -9   9   2   32.30   13.70
   0  -9   2   19.70    6.50
   8  -9  -2   18.00    6.30
   8  -9  -2   18.90    6.30
   9  -1   2   18.20    3.70
  -1  -8   2   15.20    5.80
  -8   9   2   22.20   10.50
   7  -9  -2   58.89    6.40
   2   7  -2   56.79    5.30
   7  -9  -2   50.89    6.30
   9  -2   2   66.79    5.80
  -7   9   2   71.29    9.40
   9  -2   2   65.79    6.00
  -2  -7   2   55.49    5.20
   9  -2   2   51.69    5.40
  -2  -7   2   61.59    5.90
   6  -9  -2  183.28   10.20
   6  -9  -2  204.18    9.70
   3   6  -2  186.38    8.80
  -3  -6   2  197.68   10.20
  -3  -6   2  194.88    9.50
   9  -3   2  206.18    8.30
   9  -3   2  208.88   10.70
  -6   9   2  213.58   11.30
   9  -3   2  200.48    9.40
   5  -9  -2  141.19    8.10
   5  -9  -2  122.79    9.00
   4   5  -2  131.89    7.70
  -4  -5   2  126.89    8.40
   9  -4   2  141.39    7.70
  -4  -5   2  147.79   10.80
  -4  -5   2  134.99   10.10
  -5   9   2  127.79    7.20
   9  -4   2  127.89   10.40
   5   4  -2  154.48    8.80
   4  -9  -2  141.99    7.80
   5   4  -2  135.99    7.90
   4  -9  -2  109.49    9.40
   9  -5   2  137.29    7.50
  -5  -4   2  137.19    8.60
   9  -5   2  153.08   10.30
  -5  -4   2  156.98   12.80
  -5  -4   2  147.09    9.70
   6   3  -2  212.28   10.40
   6   3  -2  194.38    9.40
   3  -9  -2  199.58    8.90
   3  -9  -2  200.48   10.60
   9  -6   2  207.88    9.20
   9  -6   2  195.78   12.00
  -6  -3   2  198.88   14.50
  -6  -3   2  203.38    9.50
  -6  -3   2  189.98   10.20
   7   2  -2   55.49    6.10
   2  -9  -2   60.89    6.40
   2  -9  -2   65.69    5.20
   7   2  -2   63.29    6.60
   7   2  -2   45.50    6.10
  -7  -2   2   61.09   11.40
   9  -7   2   66.09    6.10
  -7  -2   2   44.40    5.90
   9  -7   2   70.69    8.00
   1  -9  -2   17.30    5.90
   1  -9  -2   21.20    4.60
   8   1  -2   20.60    6.20
   8   1  -2   16.70    6.30
   8   1  -2   10.20    5.50
   9  -8   2   12.90    5.60
  -8  -1   2   29.60   11.80
   9  -8   2   22.10    7.50
   0  -9  -2   13.00    6.80
   0  -9  -2   11.60    5.10
   9   0  -2   16.80    7.40
   9   0  -2   32.40    6.60
  -9   0   2   38.20   13.60
   9  -9   2    7.60    8.50
   9  -9   2   12.80    6.40
   8 -10  -2    3.20    7.20
   8 -10  -2    6.20    7.00
  -2  -8   2    1.60    6.40
   7 -10  -2   13.00    6.50
   7 -10  -2    4.90    5.90
  10  -3   2   18.30    4.80
  10  -3   2   19.20    6.50
  -3  -7   2   16.30    6.30
  10  -3   2   14.30    7.50
   6 -10  -2  125.99   11.80
   6 -10  -2  147.59   10.30
   4   6  -2  139.39    9.70
  10  -4   2  132.29    9.10
  -4  -6   2  159.98   11.80
  -4  -6   2  155.68   10.20
  10  -4   2  131.89   11.60
   5 -10  -2  210.48   12.10
   5   5  -2  198.68    9.90
   5 -10  -2  205.68   10.70
  10  -5   2  211.08   13.80
  10  -5   2  227.38   10.40
  -5  -5   2  183.78   10.50
  -5  -5   2  155.18   13.90
   6   4  -2  112.09   11.10
   4 -10  -2  116.59   11.70
   6   4  -2  167.98    9.70
   4 -10  -2  151.78    9.40
  10  -6   2  126.59    9.20
  -6  -4   2  118.59    9.70
  10  -6   2  138.99   13.00
  -6  -4   2  161.88   16.40
   3 -10  -2   18.90    5.40
   3 -10  -2    8.10    6.70
   7   3  -2   13.10    9.60
  10  -7   2    6.20    5.80
  10  -7   2    6.60    8.60
  -7  -3   2   21.50   11.00
   2 -10  -2    1.90    7.20
   8   2  -2   -0.50    6.70
   2 -10  -2    4.60    5.30
  -8  -2   2    2.70   12.70
  10  -8   2  -10.60    9.10
  10  -8   2   -3.10    6.50
   0   0  -3    1.00    1.60
   0   0  -3    1.30    0.90
   0   0  -3   -0.10    0.90
   0   0   3    1.40    0.80
   0   0   3   -0.50    1.50
   0   0   3   -0.20    0.90
   1  -1  -3  447.36   12.40
  -1   0  -3  452.05   11.30
  -1   0  -3  458.25   12.10
   0   1  -3  458.05   11.70
  -1   0  -3  456.95   11.40
   1  -1  -3  460.65   11.50
   0   1  -3  458.15   11.80
   0   1  -3  471.25   12.40
   1  -1  -3  455.65   11.70
   1   0   3  447.36   11.30
   0  -1   3  463.15   12.30
   1   0   3  456.65   12.00
   0  -1   3  449.76   11.70
   1   0   3  460.95   11.10
   0  -1   3  449.66   11.60
  -1   1   3  464.95   11.70
  -1   1   3  440.36   12.30
   0  -1  -3  466.85   12.20
   0  -1  -3  459.15   11.30
   0  -1  -3  455.05   11.50
  -1   1  -3  449.46   12.20
   1   0  -3  471.35   11.70
   1   0  -3  437.46   11.80
  -1   1  -3  466.75   11.60
   1   0  -3  457.05   12.60
  -1   0   3  461.75   11.60
   1  -1   3  460.65   11.60
   1  -1   3  458.65   12.20
  -1   0   3  452.55   12.40
   0   1   3  456.55   12.00
  -1   0   3  456.75   11.80
   0   1   3  450.65   11.40
   1  -1   3  445.86   11.50
  -1   2  -3    7.80    2.00
  -1  -1  -3    1.30    1.50
   2  -1  -3    1.50    1.40
  -1  -1  -3    0.60    0.50
   2  -1  -3    3.10    1.30
  -1   2  -3   -0.30    1.20
   2  -1  -3    1.20    2.10
   1   1   3    3.80    0.70
  -2   1   3    1.90    2.10
   1  -2   3    2.00    1.10
   1  -2   3    0.20    1.20
  -2   1   3   -0.90    1.20
   1   1   3    1.90    1.40
   1  -2   3    0.20    1.70
  -1   3  -3  232.18    6.70
   3  -2  -3  223.88    6.80
  -1   3  -3  229.28    7.30
  -2  -1  -3  222.78    5.80
  -2  -1  -3  234.88    7.00
   3  -2  -3  231.88    8.40
  -3   2   3  234.18    6.80
  -3   2   3  207.18    8.10
   1  -3   3  227.48    6.90
   1  -3   3  238.88    6.70
   1  -3   3  229.58    7.10
   2  -2  -3 2486.45   60.99
   0   2  -3 2473.35   60.79
  -2   0  -3 2517.85   60.59
   0   2  -3 2491.95   60.19
  -2   0  -3 2492.15   59.69
   2  -2  -3 2410.66   60.19
   0  -2   3 2530.55   60.39
  -2   2   3 2504.95   60.19
  -2   2   3 2490.15   60.89
   2   0   3 2501.85   59.69
   0  -2   3 2470.15   60.69
   0  -2   3 2438.86   60.19
   1   1  -3   -1.50    1.30
   1   1  -3   -1.90    1.90
  -2   1  -3    0.60    1.10
  -2   1  -3    1.60    1.60
   1  -2  -3    1.60    1.10
   1  -2  -3   -0.90    1.70
   1   1  -3   -1.60    1.30
  -1  -1   3    0.20    2.10
  -1  -1   3    1.30    1.40
   2  -1   3    0.30    0.80
  -1   2   3    3.10    1.10
  -1  -1   3   -0.40    1.20
  -1   2   3   -1.40    1.60
   2  -1   3    2.70    1.00
   2   0  -3 2422.76   60.39
   0  -2  -3 2483.75   60.39
  -2   2  -3 2562.64   60.69
   2   0  -3 2558.34   61.29
   0  -2  -3 2473.25   59.89
  -2   2  -3 2456.55   60.09
   2   0  -3 2514.15   60.19
   2  -2   3 2500.15   60.59
   0   2   3 2486.45   59.89
  -2   0   3 2516.65   60.39
   2  -2   3 2418.66   60.09
  -2   0   3 2466.75   61.19
  -2   0   3 2448.85   60.09
   0   2   3 2488.15   60.29
   3  -1  -3  223.18    6.90
  -2   3  -3  237.08    6.70
   3  -1  -3  207.38    8.00
  -1  -2  -3  226.28    5.90
  -2   3  -3  221.08    7.20
  -1  -2  -3  227.48    6.70
   3  -1  -3  240.28    6.70
   2  -3   3  216.28    7.00
  -3   1   3  235.98    6.90
   2  -3   3  231.98    6.60
  -3   1   3  214.58    8.50
  -2   4  -3    0.50    1.90
   4  -2  -3   -0.10    1.80
  -2  -2  -3    1.70    1.80
   4  -2  -3    1.20    1.90
  -2  -2  -3    1.30    0.60
  -2   4  -3   -0.70    2.20
   4  -2  -3    1.30    3.50
   2  -4   3    2.50    1.80
  -4   2   3   -2.10    1.80
  -4   2   3    4.20    3.90
   2  -4   3    0.70    2.00
   5  -3  -3   82.79    5.20
   5  -3  -3   84.79    4.50
  -3  -2  -3   82.69    3.00
  -3  -2  -3   82.59    2.90
  -2   5  -3   85.19    5.20
  -3  -2  -3   72.29    4.50
  -2   5  -3   86.69    4.60
  -5   3   3   61.39    6.40
   2  -5   3   92.79    4.50
  -5   3   3   85.59    4.80
  -1   4  -3  263.97    8.60
  -3  -1  -3  271.87    7.00
  -3  -1  -3  261.07    8.20
   4  -3  -3  255.37    8.10
   4  -3  -3  279.97   10.00
  -1   4  -3  282.87    8.00
   1  -4   3  258.77    7.90
   1  -4   3  266.67    8.20
  -4   3   3  276.47   10.20
  -4   3   3  264.37    8.00
  -3   0  -3    9.30    2.20
   0   3  -3   20.80    2.90
   3  -3  -3    6.60    1.80
   0   3  -3   11.80    2.00
  -3   0  -3    9.60    1.20
   3  -3  -3    5.90    2.80
   0  -3   3    7.50    1.90
   0  -3   3    8.70    2.30
  -3   3   3    9.70    3.00
   0  -3   3   10.50    1.70
  -3   3   3   11.90    2.40
   1   2  -3  222.38    7.00
  -3   1  -3  234.78    7.20
   2  -3  -3  216.68    6.60
  -3   1  -3  217.08    6.30
   1   2  -3  228.38    6.70
   1   2  -3  249.88    7.90
   2  -3  -3  227.98    7.40
  -1  -2   3  232.48    6.90
  -1  -2   3  223.28    6.60
  -2   3   3  224.78    6.60
   3  -1   3  225.28    6.10
  -1  -2   3  231.28    7.50
  -2   3   3  219.48    7.20
  -3   2  -3  218.28    6.50
   2   1  -3  218.18    6.90
  -3   2  -3  229.38    7.20
   2   1  -3  223.88    7.90
   1  -3  -3  224.18    7.00
   2   1  -3  238.18    6.70
   1  -3  -3  233.58    6.50
  -2  -1   3  233.18    6.90
  -1   3   3  226.98    6.70
  -2  -1   3  217.58    7.90
  -1   3   3  238.28    6.50
   3  -2   3  219.58    6.40
  -2  -1   3  219.28    6.50
  -3   3  -3   10.50    1.80
   0  -3  -3    9.30    1.30
   3   0  -3    8.10    1.90
   0  -3  -3    9.60    1.90
   3   0  -3   18.20    2.10
  -3   3  -3   10.70    2.70
   3   0  -3    8.30    3.40
  -3   0   3    4.40    3.10
   0   3   3   11.80    1.60
   3  -3   3   10.70    1.80
  -3   0   3    8.50    2.20
   4  -1  -3  264.07   10.20
  -3   4  -3  263.57    7.90
   4  -1  -3  259.07    8.10
  -1  -3  -3  265.57    7.60
   4  -1  -3  268.97    7.90
  -3   4  -3  258.77    8.60
  -1  -3  -3  261.27    7.10
  -4   1   3  261.07    8.10
   3  -4   3  273.17    7.90
  -4   1   3  256.87   10.50
   5  -2  -3   90.99    4.60
  -3   5  -3   86.59    4.60
  -2  -3  -3   80.59    3.10
  -3   5  -3   94.89    5.40
   5  -2  -3   88.79    4.90
  -2  -3  -3   89.09    4.20
  -5   2   3   76.39    8.40
  -5   2   3   85.59    4.80
   3  -5   3   85.19    4.60
   6  -3  -3    7.20    3.20
  -3  -3  -3    0.40    2.50
  -3  -3  -3    1.50    1.40
  -3  -3  -3    0.50    1.80
  -3  -3  -3    2.00    1.30
  -3   6  -3    2.50    3.00
   6  -3  -3    2.30    2.80
  -3   6  -3    3.20    3.30
   3  -6   3    0.60    2.60
  -6   3   3    3.20    6.50
  -6   3   3   -0.70    3.00
  -4  -3  -3   12.00    2.20
  -3   7  -3   11.40    4.20
   7  -4  -3    9.30    4.20
   7  -4  -3   15.30    4.00
  -3   7  -3    9.60    4.20
  -4  -3  -3   15.30    3.60
   3  -7   3    8.90    3.40
  -7   4   3   14.30    7.80
  -7   4   3   12.70    4.10
  -2   6  -3  584.64   15.90
   6  -4  -3  590.44   16.50
  -2   6  -3  575.14   16.50
  -4  -2  -3  555.74   14.90
   6  -4  -3  602.64   16.30
   2  -6   3  590.84   15.90
  -6   4   3  598.94   16.20
  -6   4   3  562.44   19.60
   5  -4  -3   18.90    3.10
   5  -4  -3    7.20    2.50
  -1   5  -3    4.50    2.50
  -1   5  -3    3.20    3.10
  -4  -1  -3    4.60    1.80
   1  -5   3    7.80    2.50
  -5   4   3    6.20    5.00
   1  -5   3    3.40    2.50
  -5   4   3    5.60    2.60
   0   4  -3 1217.18   30.50
   4  -4  -3 1138.19   29.90
  -4   0  -3 1172.78   29.20
   0   4  -3 1200.68   29.70
   4  -4  -3 1200.28   29.90
   0  -4   3 1233.78   30.20
   0  -4   3 1175.88   30.10
   0  -4   3 1183.68   29.80
  -4   4   3 1197.78   29.90
  -4   4   3 1188.68   31.20
   3  -4  -3  262.37    7.80
   3  -4  -3  264.07    7.90
   1   3  -3  259.77    7.90
   3  -4  -3  250.67    8.90
  -4   1  -3  270.47    7.50
   1   3  -3  267.47    9.10
  -1  -3   3  276.77    8.70
   4  -1   3  267.27    7.00
  -3   4   3  268.77    7.90
  -1  -3   3  254.87    7.80
  -1  -3   3  269.07    8.30
  -3   4   3  248.38    8.70
   2  -4  -3    0.10    2.10
   2   2  -3   -0.60    1.80
  -4   2  -3   -1.50    2.40
   2   2  -3   -2.90    5.10
   2  -4  -3   -0.90    1.70
  -4   2  -3    0.40    1.80
   2   2  -3   -3.30    1.90
   2  -4  -3    1.30    1.50
  -2  -2   3    0.00    2.20
   4  -2   3    0.50    1.60
  -2   4   3   -2.10    1.80
  -2  -2   3   -0.40    1.70
   4  -2   3    0.50    1.10
  -2   4   3   -1.40    1.80
  -2  -2   3    3.80    2.90
   1  -4  -3  266.27    7.80
   1  -4  -3  275.77    7.70
  -4   3  -3  277.07    8.60
   3   1  -3  242.08    9.60
   3   1  -3  251.07    8.10
   3   1  -3  267.17    7.90
  -3  -1   3  271.17    9.90
  -1   4   3  260.17    7.30
  -3  -1   3  268.57    7.80
   4  -3   3  274.57    7.80
  -3  -1   3  259.97    8.10
   4   0  -3 1206.48   29.60
   0  -4  -3 1121.59   28.60
   4   0  -3 1215.18   31.50
   0  -4  -3 1170.28   29.20
  -4   4  -3 1224.68   30.10
   0  -4  -3 1166.18   29.20
   4   0  -3 1170.08   29.80
  -4   4  -3 1173.08   29.50
   4  -4   3 1189.68   29.60
  -4   0   3 1163.78   31.50
  -4   0   3 1193.68   29.70
   5  -1  -3    5.70    2.50
  -4   5  -3    2.70    2.70
  -1  -4  -3    7.50    1.80
  -4   5  -3    6.80    3.00
  -1  -4  -3   12.90    2.10
   5  -1  -3    7.10    2.80
  -5   1   3    9.90    5.50
   4  -5   3    5.60    2.60
  -5   1   3    7.20    2.80
   6  -2  -3  602.24   16.60
  -2  -4  -3  571.54   15.20
  -2  -4  -3  574.34   14.90
   6  -2  -3  588.84   16.00
  -4   6  -3  567.04   16.20
   6  -2  -3  581.14   16.10
  -4   6  -3  609.04   16.60
  -2  -4  -3  572.54   14.40
   4  -6   3  565.14   15.90
  -6   2   3  588.84   16.10
  -6   2   3  565.44   19.90
  -3  -4  -3   12.40    2.00
  -4   7  -3   19.90    4.30
  -3  -4  -3   15.50    3.00
  -3  -4  -3   15.80    2.10
  -4   7  -3   10.10    4.00
   7  -3  -3   10.50    3.80
  -3  -4  -3   15.80    2.10
   7  -3  -3   19.30    4.00
   7  -3  -3   14.30    4.40
  -7   3   3   18.00    8.10
   4  -7   3   17.70    3.70
  -7   3   3   11.00    4.10
  -4  -4  -3    8.00    4.00
  -4  -4  -3   -4.50    2.40
   8  -4  -3   -0.50    5.10
  -4  -4  -3    0.20    2.10
  -4   8  -3   -2.00    5.10
   8  -4  -3   -0.40    4.50
  -4   8  -3   -0.30    4.80
  -4  -4  -3    1.70    2.00
   4  -8   3    2.70    4.30
  -8   4   3    7.80    9.60
   9  -5  -3    6.50    6.90
  -4   9  -3    8.20    5.50
  -5  -4  -3    3.30    5.10
  -5  -4  -3    3.30    6.90
   9  -5  -3    9.10    6.00
  -5  -4  -3    3.50    2.30
   4  -9   3    3.80    5.40
  -9   5   3    2.00   12.70
   8  -5  -3   87.29    6.60
  -3   8  -3   60.09    6.10
  -3   8  -3   64.49    5.90
   8  -5  -3   80.49    6.60
  -8   5   3   84.69   11.90
   3  -8   3   69.79    5.90
  -2   7  -3    7.30    4.40
  -2   7  -3    3.80    3.90
   7  -5  -3    5.80    3.90
   7  -5  -3    4.30    4.00
  -7   5   3    7.40    4.00
   2  -7   3    7.70    3.80
   6  -5  -3   95.59    6.20
   6  -5  -3  103.79    5.90
  -1   6  -3   94.59    6.00
  -5  -1  -3   95.19    5.00
  -6   5   3   98.29    8.60
   1  -6   3   93.29    7.20
   1  -6   3  101.19    5.50
  -6   5   3   89.19    6.20
   0   5  -3    9.60    2.80
   5  -5  -3    6.90    3.00
   0   5  -3    8.90    3.90
  -5   0  -3    9.30    2.50
   5  -5  -3    9.00    2.60
   0  -5   3    4.90    3.00
   0  -5   3    4.90    3.50
  -5   5   3    2.90    4.70
  -5   5   3    5.20    2.80
   0  -5   3    7.30    2.70
   4  -5  -3    6.90    2.50
  -5   1  -3    4.80    2.30
   1   4  -3    5.20    2.50
   4  -5  -3    0.80    2.30
  -4   5   3    7.90    2.70
  -1  -4   3    4.60    2.80
  -1  -4   3   14.20    3.30
   5  -1   3    6.60    1.50
  -4   5   3    5.10    3.50
   5  -1   3    5.30    1.60
  -1  -4   3    4.30    2.30
   3  -5  -3   79.89    4.50
  -5   2  -3   77.39    4.60
   2   3  -3   83.29    6.40
   3  -5  -3   76.99    4.10
   2   3  -3   95.39    4.60
  -2  -3   3   82.69    4.90
  -2  -3   3   85.79    4.50
   5  -2   3   73.89    4.00
  -2  -3   3   86.69    6.00
  -3   5   3   80.09    4.80
   5  -2   3   88.89    3.20
   3   2  -3   85.49    4.60
  -5   3  -3   83.79    4.50
   3   2  -3   84.29    4.90
   2  -5  -3   85.89    3.70
   3   2  -3   80.59    7.10
   2  -5  -3   84.89    4.50
  -3  -2   3   83.29    6.60
  -3  -2   3   81.09    4.70
  -2   5   3   86.19    3.80
   5  -3   3   79.59    4.50
   5  -3   3   84.59    3.70
  -3  -2   3   81.79    4.30
   1  -5  -3    5.80    1.90
   4   1  -3    3.20    2.60
   4   1  -3    8.20    4.70
  -5   4  -3    3.70    3.20
   1  -5  -3    6.80    1.50
  -5   4  -3   11.30    2.80
   4   1  -3    1.50    2.50
   1  -5  -3    5.00    2.30
   5  -4   3    2.90    2.50
  -4  -1   3    5.60    2.30
  -4  -1   3    5.10    2.60
  -4  -1   3    2.20    4.20
   5   0  -3    8.30    3.00
   0  -5  -3    9.40    1.40
  -5   5  -3   12.00    3.20
  -5   5  -3    5.30    3.20
   0  -5  -3    8.80    2.40
   5   0  -3    7.40    3.10
   0  -5  -3    8.70    1.80
  -5   0   3    3.20    2.80
  -5   0   3    7.60    5.30
   5  -5   3    5.60    3.00
  -1  -5  -3   95.59    4.00
   6  -1  -3   99.59    6.00
  -5   6  -3  101.29    6.80
   6  -1  -3   99.99    6.50
  -5   6  -3   91.49    6.10
  -1  -5  -3   98.49    5.00
  -1  -5  -3   96.49    3.40
   6  -1  -3   97.29    5.90
   5  -6   3   86.79    6.40
  -6   1   3   87.09    8.50
  -6   1   3   95.79    6.10
  -5   7  -3    4.30    4.40
   7  -2  -3    8.90    3.60
  -2  -5  -3    3.00    2.40
  -2  -5  -3   11.80    2.00
   7  -2  -3   16.10    4.60
  -2  -5  -3    6.60    2.50
  -5   7  -3    9.30    4.20
   7  -2  -3    3.80    4.10
  -7   2   3   13.20    4.30
   5  -7   3    8.80    3.90
  -7   2   3    4.60    7.90
  -3  -5  -3   79.29    4.90
   8  -3  -3   63.29    5.50
  -5   8  -3   42.00    5.70
  -3  -5  -3   61.29    4.40
  -3  -5  -3   61.39    6.70
  -5   8  -3   76.89    6.50
   8  -3  -3   79.49    6.90
  -3  -5  -3   65.99    5.00
  -3  -5  -3   62.39    5.30
   5  -8   3   78.39    7.20
  -8   3   3   77.49   11.60
  -8   3   3   60.79    6.60
  -4  -5  -3    4.70    5.70
  -4  -5  -3    5.60    3.20
  -4  -5  -3    8.50    5.30
  -4  -5  -3    8.40    3.10
   9  -4  -3   11.70    6.20
  -4  -5  -3    2.80    2.90
   9  -4  -3    9.10    6.60
  -5   9  -3    8.00    5.70
   5  -9   3    2.10    5.60
  -9   4   3    4.10   12.40
  10  -5  -3    2.60    8.30
  -5  -5  -3   11.40    5.30
  -5  -5  -3    4.90    8.90
  10  -5  -3   -8.30    6.90
 -10   5   3   -3.80   16.10
   5 -10   3    0.40    7.10
  10  -6  -3   34.70    7.90
  -6  -4  -3   39.20   15.40
  10  -6  -3   46.50    9.20
 -10   6   3   45.40   16.50
   4 -10   3   37.90    7.50
  -3   9  -3    0.70    5.60
   9  -6  -3    5.40    6.40
   9  -6  -3    8.30    6.40
   3  -9   3   -1.00    5.50
  -9   6   3   12.00   12.80
  -2   8  -3  140.09    9.20
   8  -6  -3  134.69    8.80
  -2   8  -3  151.58    9.40
   8  -6  -3  142.79    9.60
  -8   6   3  132.19   12.50
   2  -8   3  143.09    8.20
  -1   7  -3   63.59    5.90
  -1   7  -3   56.19    5.10
   7  -6  -3   71.19    5.70
  -6  -1  -3   56.59    4.60
   7  -6  -3   57.09    5.60
   1  -7   3   54.69    6.40
   1  -7   3   48.60    4.80
  -7   6   3   58.89    9.70
  -7   6   3   45.60    5.60
   0   6  -3    1.20    3.40
   0   6  -3    7.60    4.50
   6  -6  -3    1.80    3.50
   6  -6  -3   -3.60    3.50
  -6   0  -3   -1.10    3.20
  -6   6   3    5.10    4.10
   0  -6   3   -0.60    4.20
   0  -6   3    1.80    3.20
  -6   6   3   -3.10    6.40
   0  -6   3    2.30    3.20
   5  -6  -3   96.69    6.00
   1   5  -3  100.79    7.60
   1   5  -3   87.99    5.90
   5  -6  -3   99.19    5.90
  -6   1  -3  105.49    5.70
  -1  -5   3   85.99    6.00
  -1  -5   3   90.89    6.30
  -5   6   3   86.29    8.30
   6  -1   3  101.69    4.20
  -1  -5   3  108.89    6.80
   6  -1   3  103.19    4.00
   6  -1   3   93.09    3.30
   4  -6  -3  583.44   15.60
   4  -6  -3  580.54   16.00
   2   4  -3  570.14   17.30
   2   4  -3  587.04   15.70
  -6   2  -3  577.64   15.80
  -2  -4   3  573.34   16.70
   6  -2   3  578.64   15.20
   6  -2   3  564.04   14.60
  -4   6   3  566.34   16.20
  -2  -4   3  601.84   16.30
  -2  -4   3  567.44   15.70
   3  -6  -3    1.80    2.10
   3  -6  -3   -0.80    2.70
   3   3  -3    2.30    3.00
   3   3  -3    3.00    4.70
  -6   3  -3   -1.80    3.00
   6  -3   3    3.40    1.80
  -3  -3   3    3.40    4.30
   6  -3   3    1.10    2.70
  -3   6   3    2.10    2.20
  -3  -3   3    0.70    3.30
  -3  -3   3    0.50    2.70
   2  -6  -3  570.94   14.90
   4   2  -3  593.74   15.70
  -6   4  -3  554.64   15.90
   4   2  -3  559.14   18.30
   4   2  -3  587.24   16.10
   2  -6  -3  582.74   15.80
  -4  -2   3  570.64   15.80
  -4  -2   3  571.24   18.10
  -4  -2   3  580.24   16.00
   6  -4   3  579.84   15.90
   6  -4   3  579.54   15.20
   5   1  -3  103.29    6.00
   5   1  -3   94.19    6.20
  -6   5  -3   94.59    6.30
  -6   5  -3   97.69    7.70
   1  -6  -3  100.09    5.60
   1  -6  -3  101.69    4.10
  -5  -1   3  106.89    9.80
   6  -5   3  107.09    6.10
  -5  -1   3   92.79    6.00
   6  -5   3   98.19    5.10
   0  -6  -3    1.10    3.00
  -6   6  -3    3.60    4.00
   0  -6  -3    1.00    1.90
   6   0  -3    0.80    3.20
   6   0  -3   -0.10    3.70
  -6   6  -3   -4.30    4.20
   6   0  -3    0.10    4.70
  -6   0   3    1.10    3.60
   6  -6   3   -4.90    3.60
   6  -6   3    3.60    3.20
  -6   0   3  -10.50    9.30
  -1  -6  -3   55.09    4.30
   7  -1  -3   46.70    4.50
  -1  -6  -3   55.39    3.60
  -6   7  -3   67.29    6.30
  -6   7  -3   46.20    5.20
   7  -1  -3   57.69    5.50
   7  -1  -3   54.69    5.70
  -7   1   3   61.89    5.40
   6  -7   3   52.09    5.20
  -7   1   3   72.59   10.10
  -2  -6  -3  131.89    6.90
  -6   8  -3  139.69   10.30
   8  -2  -3  137.49    8.70
   8  -2  -3  137.19    9.60
  -2  -6  -3  163.58    7.00
  -2  -6  -3  139.19    5.70
  -8   2   3  146.99   14.10
  -8   2   3  181.98   16.60
   6  -8   3  156.58    9.10
   9  -3  -3    4.60    5.60
  -3  -6  -3    6.30    3.80
   9  -3  -3    9.70    6.70
  -6   9  -3    5.60    6.40
  -3  -6  -3    1.80    3.70
  -3  -6  -3    0.50    3.30
  -3  -6  -3   -0.10    3.60
  -9   3   3   11.10   12.90
   6  -9   3    1.30    5.80
  10  -4  -3   50.79    8.10
  -4  -6  -3   41.00    4.90
  10  -4  -3   42.10    9.40
 -10   4   3   37.30   15.90
   6 -10   3   31.40    7.30
  10  -7  -3   16.60    8.10
  -7  -3  -3   27.20   11.40
   3 -10   3   15.40    9.90
 -10   7   3   43.00   17.20
   9  -7  -3   -0.50    6.80
   9  -7  -3    4.70    6.20
   2  -9   3    5.40    5.80
  -9   7   3    3.20   13.60
  -1   8  -3   -0.10    6.00
   8  -7  -3  -12.20    5.50
  -1   8  -3    3.00    5.40
   8  -7  -3    1.10    5.00
  -8   7   3    9.40   11.10
   1  -8   3    4.50    4.80
   7  -7  -3   -4.40    4.40
   0   7  -3   -1.90    4.50
   7  -7  -3   10.20    4.50
  -7   0  -3   -3.20    4.20
   0   7  -3   -3.50    5.10
   0  -7   3    0.20    4.00
   0  -7   3   -0.60    3.40
  -7   7   3    1.50    8.50
   6  -7  -3   54.29    4.90
  -7   1  -3   59.79    5.20
   1   6  -3   63.69    6.50
   6  -7  -3   45.00    4.80
   1   6  -3   49.10    4.80
   7  -1   3   57.39    3.20
   7  -1   3   59.09    3.90
  -6   7   3   62.79    7.60
  -1  -6   3   63.99    6.30
   7  -1   3   62.59    4.00
  -1  -6   3   67.09    6.30
  -1  -6   3   59.99    5.00
   5  -7  -3   -0.10    3.40
   2   5  -3    5.10    5.80
   5  -7  -3    8.50    3.30
  -7   2  -3    4.50    3.90
   2   5  -3    7.40    3.70
  -2  -5   3    8.50    4.30
   7  -2   3    2.90    3.00
   7  -2   3    5.90    1.90
  -2  -5   3    6.00    4.40
  -5   7   3    9.00    4.50
  -2  -5   3    7.20    3.60
   4  -7  -3   12.20    3.10
   3   4  -3   12.60    3.70
  -7   3  -3   12.90    4.20
   3   4  -3   13.90    6.30
  -3  -4   3   17.80    4.00
  -3  -4   3   12.30    5.10
  -3  -4   3   18.00    3.60
   7  -3   3   18.10    3.60
  -4   7   3   13.00    3.40
   7  -3   3   13.50    2.20
   3  -7  -3    8.10    2.70
  -7   4  -3   12.70    4.10
   3  -7  -3   19.20    3.80
   4   3  -3   14.50    3.90
  -3   7   3   14.10    2.10
   7  -4   3   19.00    4.00
  -4  -3   3   19.50    6.10
   7  -4   3    9.40    2.60
  -4  -3   3    7.90    3.20
  -4  -3   3    9.50    3.80
   5   2  -3    5.20    3.90
  -7   5  -3    6.10    4.40
   5   2  -3    4.50    4.10
   2  -7  -3    4.20    2.60
   2  -7  -3   10.60    3.70
  -5  -2   3    5.80    6.60
   7  -5   3    7.30    4.10
  -5  -2   3    8.20    3.60
   7  -5   3    3.10    2.80
  -5  -2   3    4.30    3.70
  -7   6  -3   51.69    5.80
   1  -7  -3   64.69    4.30
  -7   6  -3   64.19    7.40
   1  -7  -3   57.79    4.70
   6   1  -3   58.89    5.10
   6   1  -3   53.09    5.00
   6   1  -3   68.79    5.90
   7  -6   3   59.39    5.70
  -6  -1   3   64.19    5.50
   7  -6   3   63.99    4.70
  -6  -1   3   52.49    8.30
   0  -7  -3    5.40    3.80
   0  -7  -3    3.30    2.50
   7   0  -3   -8.10    5.10
   7   0  -3    0.20    4.10
   7   0  -3    0.10    4.70
  -7   7  -3   -2.50    5.50
   7  -7   3   -6.80    4.80
  -7   0   3    1.20    4.60
  -7   0   3   -9.00    8.90
   7  -7   3    0.20    3.80
  -1  -7  -3    2.20    2.80
  -1  -7  -3    1.50    4.00
   8  -1  -3   -0.70    4.70
   8  -1  -3   -0.10    5.60
  -7   8  -3    1.90    6.70
  -8   1   3   11.80   10.20
   7  -8   3   -1.60    4.90
   7  -8   3    7.80    5.70
  -2  -7  -3    3.40    4.50
  -2  -7  -3    3.70    3.50
   9  -2  -3    8.20    7.40
   9  -2  -3    6.50    6.20
  -7   9  -3    0.00    7.10
  -2  -7  -3   10.30    4.30
  -9   2   3   -2.80   13.20
   7  -9   3   -4.10    6.50
   7  -9   3    4.50    6.10
  10  -3  -3   25.70    9.60
  -3  -7  -3   21.90    6.60
  10  -3  -3   17.00    7.40
   7 -10   3   20.30    7.60
 -10   3   3    7.20   15.50
   9  -8  -3    5.00    6.60
  -1   9  -3    7.80    7.10
   9  -8  -3   -0.40    7.50
   1  -9   3   15.80    6.40
  -9   8   3    9.60   14.30
   8  -8  -3  103.49    9.70
   8  -8  -3   96.59    7.60
   0   8  -3  110.29    9.80
   0  -8   3   79.39    6.80
  -8   8   3   70.39   12.50
   1   7  -3   -2.00    6.50
   7  -8  -3    1.60    4.60
   1   7  -3    3.20    5.10
   7  -8  -3   13.00    5.20
  -8   1  -3   -2.60    5.50
   8  -1   3    3.80    2.60
   8  -1   3    2.90    2.40
  -1  -7   3   13.80    5.10
   8  -1   3    0.00    2.10
  -7   8   3   -5.00    8.50
  -1  -7   3    1.90    4.40
   6  -8  -3  154.28    8.20
   2   6  -3  130.99   11.20
  -8   2  -3  131.49    9.70
   6  -8  -3  138.19    8.90
   2   6  -3  139.49    8.30
   8  -2   3  140.19    5.60
  -2  -6   3  150.58    8.30
   8  -2   3  134.79    6.80
  -2  -6   3  143.99    8.70
   8  -2   3  147.09    6.70
  -6   8   3  138.99   11.10
   3   5  -3   69.49    5.50
  -8   3  -3   59.19    6.40
   5  -8  -3   64.19    5.60
   5  -8  -3   77.09    6.20
  -3  -5   3   69.99    6.50
   8  -3   3   58.79    4.90
  -3  -5   3   71.29    6.50
  -3  -5   3   81.39    7.00
   8  -3   3   66.79    5.30
  -5   8   3   70.99    5.90
   4   4  -3   -0.30    4.30
   4  -8  -3   -0.90    4.20
   4  -8  -3    1.30    3.50
  -8   4  -3   -0.10    5.10
   8  -4   3    0.20    2.70
  -4  -4   3    1.20    3.90
  -4  -4   3   -2.10    6.30
  -4   8   3   -2.30    2.70
  -4  -4   3   -8.40    5.10
   8  -4   3    3.40    4.70
   3  -8  -3   66.59    5.50
   3  -8  -3   69.59    6.10
   5   3  -3   68.19    5.70
  -8   5  -3   64.09    7.10
  -5  -3   3   69.79    6.60
   8  -5   3   67.29    6.20
  -5  -3   3   81.89    8.00
  -5  -3   3   68.39   10.10
   8  -5   3   74.89    5.70
   2  -8  -3  148.09    6.70
   6   2  -3  139.89    9.20
   2  -8  -3  145.19    8.80
   6   2  -3  149.39    9.10
   6   2  -3  143.69    9.60
  -6  -2   3  142.49    9.10
  -6  -2   3  143.89   14.00
   8  -6   3  151.98    7.60
   8  -6   3  146.59    9.90
   7   1  -3   -7.50    5.00
   7   1  -3   -0.70    5.70
   7   1  -3   -2.90    4.70
   1  -8  -3    2.10    4.70
   1  -8  -3   -0.10    3.20
   8  -7   3    3.30    5.90
   8  -7   3   -0.70    4.40
  -7  -1   3   -0.60    9.90
   8   0  -3  105.19    9.60
   0  -8  -3   91.79    6.10
   0  -8  -3   79.69    6.70
   8   0  -3   92.39    8.20
  -8   0   3   72.09   12.70
   8  -8   3   99.09    9.30
   8  -8   3   94.39    8.00
   9  -1  -3   15.50    8.20
  -1  -8  -3    9.70    6.00
   9  -1  -3    4.30    6.00
  -1  -8  -3   12.20    4.20
  -9   1   3    0.40   13.00
   8  -9   3   11.40    7.90
   8  -9   3   11.00    6.00
   8  -9  -3   11.60    6.60
   1   8  -3    9.50    6.50
   8  -9  -3    4.60    6.60
  -1  -8   3   15.60    6.60
  -8   9   3   28.60   11.80
   7  -9  -3    8.30    5.80
   7  -9  -3    2.20    5.50
   2   7  -3    3.50    5.80
  -2  -7   3   10.90    5.80
   9  -2   3    1.80    3.90
  -7   9   3    8.20    8.10
  -2  -7   3    8.20    5.50
   6  -9  -3    9.90    5.50
   3   6  -3    4.50    5.30
   6  -9  -3   -0.70    4.80
  -3  -6   3   -5.50    6.10
  -6   9   3   -0.40    6.10
   9  -3   3   -2.40    4.70
   9  -3   3   -3.60    4.80
  -3  -6   3    6.00    5.20
   9  -3   3    1.50    3.50
   5  -9  -3    6.00    4.50
   4   5  -3   -1.40    5.10
   5  -9  -3    1.80    5.50
   9  -4   3    5.50    3.70
  -4  -5   3    8.50    7.00
  -5   9   3   -0.20    3.90
  -4  -5   3    5.20    4.80
   5   4  -3    3.40    5.30
   4  -9  -3    9.90    5.30
   4  -9  -3    0.00    4.30
  -5  -4   3    9.30    8.10
   9  -5   3    9.30    3.90
   9  -5   3    8.60    6.40
  -5  -4   3   -2.80    4.80
   3  -9  -3    2.30    5.60
   3  -9  -3   -1.90    4.10
   6   3  -3    7.50    5.80
   6   3  -3    4.40    6.10
   9  -6   3   10.00    6.80
  -6  -3   3   -4.40    5.10
   9  -6   3    0.80    4.40
  -6  -3   3    8.60    9.60
   2  -9  -3    9.70    5.90
   7   2  -3   -9.40    6.30
   2  -9  -3   -0.50    4.20
   7   2  -3    4.40    6.60
   9  -7   3    8.50    4.90
   9  -7   3    1.10    7.20
  -7  -2   3    6.10   10.10
   8   1  -3    4.00    6.00
   8   1  -3    9.80    7.50
   1  -9  -3   -2.70    6.10
   1  -9  -3   11.00    4.60
   9  -8   3    3.60    8.10
  -8  -1   3   11.80   13.20
   9  -8   3   13.10    6.00
   7 -10  -3    3.70    7.50
   7 -10  -3   16.00    6.70
  -3  -7   3   16.90    6.90
   6 -10  -3   49.40    6.60
   6 -10  -3   39.80    7.30
  10  -4   3   54.49    7.40
  -4  -6   3   47.30   10.90
  -4  -6   3   45.10    7.00
  10  -4   3   24.40    7.20
   5 -10  -3   10.50    7.00
   5   5  -3   -3.80    6.30
   5   5  -3   -8.50    6.30
   5 -10  -3   -0.70    5.40
  -5  -5   3    5.10    9.80
  -5  -5   3    8.30    6.70
  10  -5   3    5.60    7.10
  10  -5   3    6.40    5.00
   4 -10  -3   44.30    7.80
   4 -10  -3   45.90    6.10
   6   4  -3   62.49    7.70
  -6  -4   3   31.00    7.00
  10  -6   3   42.80    5.60
  10  -6   3   46.90    8.80
  -6  -4   3   45.30   11.30
   7   3  -3    3.40    7.10
   3 -10  -3   17.30    5.40
   3 -10  -3   12.40    7.00
  -7  -3   3    6.50   12.30
  10  -7   3   16.60    5.80
  10  -7   3   10.50    9.40
   0   0  -4 6651.03  164.48
   0   0  -4 6883.01  165.68
   0   0  -4 6869.71  164.38
   0   0   4 6956.50  164.08
   0   0   4 6966.40  165.08
   0   0   4 6594.54  163.68
  -1   0  -4 1720.03   41.70
   1  -1  -4 1655.63   41.00
   1  -1  -4 1732.73   42.00
   1  -1  -4 1648.83   40.70
   0   1  -4 1669.33   41.10
   0   1  -4 1712.63   41.90
  -1   0  -4 1660.43   40.70
  -1   0  -4 1629.14   40.60
   0   1  -4 1693.23   41.00
   1   0   4 1652.73   41.40
   0  -1   4 1647.64   40.80
   0  -1   4 1667.53   41.70
   0  -1   4 1711.73   41.10
   1   0   4 1654.73   40.70
  -1   1   4 1679.93   40.90
  -1   1   4 1674.83   41.80
   1   0  -4 1745.03   42.20
   1   0  -4 1719.53   41.00
   0  -1  -4 1732.73   41.80
   1   0  -4 1680.53   41.20
   0  -1  -4 1635.24   40.60
   0  -1  -4 1648.24   40.90
  -1   1  -4 1659.23   40.90
  -1   1  -4 1714.23   41.90
   0   1   4 1667.73   41.50
   0   1   4 1673.03   40.80
  -1   0   4 1669.13   42.00
   1  -1   4 1647.64   40.80
  -1   0   4 1693.83   41.10
   1  -1   4 1644.24   41.60
   1  -1   4 1682.83   41.00
  -1   0   4 1646.64   40.80
  -1  -1  -4  178.68    6.40
   2  -1  -4  169.68    5.80
  -1   2  -4  179.38    5.60
  -1   2  -4  187.58    7.20
  -1  -1  -4  175.38    5.00
  -1  -1  -4  175.18    4.80
   2  -1  -4  176.98    5.50
   1   1   4  176.28    6.10
   1   1   4  173.28    4.90
  -2   1   4  181.58    7.10
   1  -2   4  181.28    5.50
   1  -2   4  168.28    6.20
  -2   1   4  179.48    5.80
   1  -2   4  179.98    5.90
   3  -2  -4 1324.57   33.30
  -2  -1  -4 1304.17   32.30
  -2  -1  -4 1363.66   33.60
  -1   3  -4 1342.57   33.90
   3  -2  -4 1391.16   34.60
   3  -2  -4 1331.07   33.00
  -1   3  -4 1324.97   33.10
  -3   2   4 1350.16   34.50
   1  -3   4 1318.17   33.10
   1  -3   4 1332.17   33.30
   1  -3   4 1302.07   33.70
  -3   2   4 1344.47   33.20
   0   2  -4   66.49    4.10
  -2   0  -4   70.79    2.80
   2  -2  -4   71.09    3.50
   2  -2  -4   71.19    5.10
   0   2  -4   69.89    4.80
   2   0   4   68.49    2.50
   0  -2   4   71.19    3.50
  -2   2   4   69.79    4.80
   0  -2   4   71.59    4.60
  -2   2   4   74.09    3.50
   1   1  -4  172.78    7.10
  -2   1  -4  174.78    5.30
  -2   1  -4  176.28    6.60
   1  -2  -4  177.08    5.50
   1   1  -4  163.58    5.80
   1  -2  -4  181.78    6.60
   1   1  -4  184.58    5.80
   2  -1   4  177.28    5.00
   2  -1   4  168.38    6.10
  -1  -1   4  185.28    5.50
  -1  -1   4  174.38    7.40
  -1   2   4  174.08    5.40
  -1   2   4  168.18    6.40
  -1  -1   4  175.98    6.90
   2  -1   4  175.48    5.10
   2   0  -4   72.89    3.70
   0  -2  -4   69.99    4.20
   0  -2  -4   71.79    3.00
  -2   2  -4   70.49    4.50
  -2   2  -4   70.19    3.40
   2   0  -4   78.09    3.90
   2   0  -4   71.19    5.40
  -2   0   4   71.79    3.90
   0   2   4   70.59    2.90
  -2   0   4   71.19    3.30
   2  -2   4   73.89    4.30
   2  -2   4   74.09    3.50
   2  -2   4   89.29    3.30
  -2   0   4   68.19    5.20
   0   2   4   75.09    4.00
  -2   3  -4 1350.36   34.00
  -1  -2  -4 1331.27   32.60
   3  -1  -4 1315.77   33.20
  -2   3  -4 1350.26   33.20
   3  -1  -4 1302.87   33.50
   3  -1  -4 1340.97   34.70
  -1  -2  -4 1370.06   33.60
  -3   1   4 1334.07   34.80
   1   2   4 1323.07   32.50
   2  -3   4 1342.37   33.70
   1   2   4 1341.37   33.30
   2  -3   4 1337.37   33.10
   2  -3   4 1341.77   33.40
  -3   1   4 1379.96   33.40
   4  -2  -4 3542.95   86.99
  -2   4  -4 3567.54   86.09
  -2   4  -4 3520.75   85.39
   4  -2  -4 3438.66   85.59
  -2  -2  -4 3459.05   85.49
   4  -2  -4 3510.35   85.29
   2  -4   4 3467.65   85.29
  -4   2   4 3526.25   87.19
   2  -4   4 3551.24   85.79
   2  -4   4 3559.54   85.59
  -4   2   4 3552.04   85.49
   5  -3  -4  534.35   14.20
  -3  -2  -4  516.65   12.80
  -2   5  -4  494.25   14.30
  -3  -2  -4  516.85   14.50
  -2   5  -4  505.55   15.20
   5  -3  -4  523.65   14.50
   5  -3  -4  518.45   17.20
  -5   3   4  526.35   14.50
   2  -5   4  526.25   14.60
   2  -5   4  529.75   15.00
   2  -5   4  518.45   14.30
  -5   3   4  486.65   17.20
  -1   4  -4  943.11   25.00
  -3  -1  -4  928.91   24.50
   4  -3  -4  962.20   25.80
  -3  -1  -4  930.71   23.10
   4  -3  -4  938.31   24.30
  -1   4  -4  920.31   24.00
  -4   3   4  967.00   24.20
  -4   3   4  920.11   25.80
   1  -4   4  947.21   24.00
   1  -4   4  978.00   24.40
   1  -4   4  938.71   24.50
   3  -3  -4  232.58    7.50
  -3   0  -4  240.88    8.20
   0   3  -4  243.88    8.80
   3  -3  -4  247.68    9.10
   0   3  -4  234.48    7.50
  -3   0  -4  241.78    6.60
  -3   3   4  241.98    8.80
  -3   3   4  246.88    7.50
   0  -3   4  229.88    7.40
   0  -3   4  216.48    8.40
   0  -3   4  238.68    7.70
  -3   1  -4 1348.27   32.90
  -3   1  -4 1390.96   34.00
   1   2  -4 1328.77   33.60
   2  -3  -4 1346.47   33.30
   2  -3  -4 1374.96   34.10
   1   2  -4 1334.57   34.40
   1   2  -4 1336.07   33.30
  -1  -2   4 1313.57   34.20
   3  -1   4 1288.97   32.60
   3  -1   4 1337.67   32.50
  -1  -2   4 1332.77   33.20
  -2   3   4 1329.97   33.80
  -2   3   4 1362.56   33.50
  -1  -2   4 1348.67   33.50
  -3   2  -4 1344.97   33.00
   2   1  -4 1336.07   33.50
   1  -3  -4 1334.87   33.00
  -3   2  -4 1366.16   34.00
   1  -3  -4 1326.57   33.70
   2   1  -4 1362.76   34.60
   2   1  -4 1358.56   33.30
   3  -2   4 1343.07   32.90
  -2  -1   4 1305.77   34.40
   3  -2   4 1311.97   32.80
  -1   3   4 1348.57   32.90
  -1   3   4 1328.17   33.40
  -2  -1   4 1332.77   33.40
  -2  -1   4 1351.16   33.20
   3   0  -4  256.47    9.70
  -3   3  -4  247.68    7.40
   3   0  -4  224.08    7.80
   0  -3  -4  237.18    6.90
   0  -3  -4  237.78    7.80
   3   0  -4  246.28    7.60
  -3   3  -4  252.77    8.60
  -3   0   4  248.38    9.60
   3  -3   4  243.88    7.30
  -3   0   4  224.68    7.70
   0   3   4  236.08    7.30
  -1  -3  -4  939.31   24.20
  -3   4  -4  961.20   25.00
   4  -1  -4  933.41   26.20
  -1  -3  -4  937.41   23.30
   4  -1  -4  980.50   24.20
  -3   4  -4  941.61   24.10
   4  -1  -4  920.91   24.40
  -4   1   4  971.60   24.40
   3  -4   4  964.60   24.10
  -4   1   4  920.11   26.40
  -3   5  -4  528.35   15.20
  -2  -3  -4  463.95   13.10
  -3   5  -4  514.25   14.30
   5  -2  -4  531.75   14.30
  -2  -3  -4  524.55   14.20
   5  -2  -4  511.65   17.00
   5  -2  -4  512.05   14.60
   3  -5   4  512.65   14.20
  -5   2   4  516.35   17.60
  -5   2   4  520.95   14.50
   6  -3  -4   31.90    4.50
  -3   6  -4   37.20    4.90
   6  -3  -4   33.10    3.80
  -3  -3  -4   48.40    4.10
  -3   6  -4   39.40    4.20
  -3  -3  -4   40.20    2.50
  -6   3   4   37.10    4.20
   3  -6   4   37.00    3.90
  -6   3   4   38.10    8.20
  -3   7  -4  284.97   10.90
   7  -4  -4  307.57   11.50
   7  -4  -4  301.67   10.80
  -4  -3  -4  293.37    8.60
   7  -4  -4  305.87   11.10
  -3   7  -4  294.67   11.90
  -4  -3  -4  299.87   10.60
  -7   4   4  313.57   17.60
  -7   4   4  291.77   11.20
   3  -7   4  301.57   10.50
  -4  -2  -4   37.60    3.40
  -4  -2  -4   42.90    4.20
  -2   6  -4   33.10    5.00
   6  -4  -4   53.49    4.90
   6  -4  -4   30.30    4.10
  -2   6  -4   39.60    4.30
  -6   4   4   43.10    4.30
  -6   4   4   36.20    7.60
   2  -6   4   33.80    4.30
   2  -6   4   34.70    4.00
   5  -4  -4  111.39    5.90
  -1   5  -4   98.69    7.30
   5  -4  -4  118.39    6.20
  -1   5  -4   99.19    5.70
  -4  -1  -4   94.39    6.00
  -4  -1  -4  108.29    4.00
   1  -5   4  101.89    6.20
   1  -5   4  106.19    5.50
  -5   4   4  106.89    5.80
  -5   4   4  101.19    9.10
   1  -5   4  108.19    6.60
   4  -4  -4   46.50    4.40
  -4   0  -4   52.19    4.90
   0   4  -4   56.09    3.90
  -4   0  -4   50.09    3.20
   4  -4  -4   52.89    5.40
   0   4  -4   54.89    5.30
   0  -4   4   52.89    4.40
   0  -4   4   52.69    3.80
  -4   4   4   48.30    4.50
   0  -4   4   50.39    4.90
  -4   4   4   49.80    5.20
   1   3  -4  921.01   24.00
  -4   1  -4  949.71   23.50
   3  -4  -4  951.70   25.10
   3  -4  -4  945.21   24.10
  -4   1  -4  951.60   24.70
   1   3  -4  958.40   25.30
   4  -1   4  959.50   22.90
  -1  -3   4  925.31   24.00
  -1  -3   4  927.91   24.20
  -3   4   4  953.00   24.00
  -1  -3   4  933.71   25.00
  -3   4   4  931.71   24.70
   4  -1   4  923.61   22.90
  -4   2  -4 3461.05   84.99
  -4   2  -4 3558.54   84.19
   2   2  -4 3530.15   85.69
   2   2  -4 3504.75   84.39
   2   2  -4 3401.26   84.59
   2  -4  -4 3429.56   84.29
   2  -4  -4 3494.75   84.89
  -2   4   4 3451.95   84.49
  -2  -2   4 3476.45   85.49
  -2  -2   4 3545.85   84.59
  -2   4   4 3475.65   84.19
   4  -2   4 3381.06   83.79
  -2  -2   4 3460.85   84.29
   1  -4  -4  930.41   23.60
   1  -4  -4  934.11   24.10
  -4   3  -4  935.61   23.70
   3   1  -4  970.60   24.00
   3   1  -4  899.01   24.30
   3   1  -4  953.60   25.70
  -4   3  -4  941.61   24.70
  -3  -1   4  915.61   23.90
   4  -3   4  941.11   23.60
  -1   4   4  955.40   23.70
  -3  -1   4  917.61   25.60
  -3  -1   4  950.10   24.20
  -4   4  -4   48.50    4.30
   4   0  -4   51.49    4.70
   0  -4  -4   48.30    4.30
   0  -4  -4   49.99    3.40
   4   0  -4   49.80    5.90
   4   0  -4   48.80    4.60
  -4   4  -4   54.29    5.60
  -4   0   4   49.80    6.00
   4  -4   4   48.40    4.30
  -4   0   4   53.49    4.00
  -4   5  -4  103.89    5.70
   5  -1  -4  110.69    6.00
  -4   5  -4  112.09    7.00
  -1  -4  -4  107.79    5.40
   5  -1  -4  104.59    9.70
   5  -1  -4  107.49    5.90
  -1  -4  -4  102.49    4.20
  -5   1   4  107.99    6.20
   4  -5   4  106.09    5.60
  -5   1   4  112.59   10.20
  -4   6  -4   44.80    4.60
  -4   6  -4   35.30    5.10
  -2  -4  -4   51.89    4.10
  -2  -4  -4   39.80    2.90
   6  -2  -4   35.10    4.30
   6  -2  -4   31.90    6.80
   4  -6   4   35.60    4.00
  -6   2   4   51.69    4.80
  -6   2   4   48.80    8.80
   7  -3  -4  312.57   11.20
  -4   7  -4  316.07   12.40
   7  -3  -4  291.27   11.10
  -3  -4  -4  289.37   12.80
  -3  -4  -4  305.07    8.20
   7  -3  -4  314.67   11.50
  -4   7  -4  304.97   11.40
  -7   3   4  332.47   17.50
   4  -7   4  320.87   10.90
  -7   3   4  299.17   11.30
  -4  -4  -4  534.05   16.60
   8  -4  -4  581.84   17.80
  -4   8  -4  556.74   18.30
   8  -4  -4  586.74   17.80
  -8   4   4  567.84   24.90
   4  -8   4  566.24   17.40
  -4   9  -4   49.80    7.90
   9  -5  -4   74.99    7.80
   9  -5  -4   65.69    7.90
  -5  -4  -4   51.09    6.70
   4  -9   4   56.29    7.00
  -9   5   4   26.60   14.30
   8  -5  -4  206.88   10.40
  -3   8  -4  196.38   11.50
   8  -5  -4  219.28   11.10
  -5  -3  -4  176.48    9.80
   3  -8   4  190.68    9.60
  -8   5   4  185.18   18.90
   7  -5  -4  134.89    8.30
  -2   7  -4  137.89    9.60
  -2   7  -4  131.59    8.20
  -5  -2  -4  134.19    6.10
   7  -5  -4  126.19    8.20
  -5  -2  -4  135.79    8.60
  -7   5   4  117.19   11.40
   2  -7   4  139.39    7.60
   6  -5  -4  459.05   13.90
  -5  -1  -4  457.05   12.60
   6  -5  -4  465.25   14.00
  -1   6  -4  459.35   13.70
  -1   6  -4  467.15   15.20
  -5  -1  -4  451.05   14.50
   1  -6   4  466.55   14.50
   1  -6   4  459.25   13.80
  -6   5   4  456.85   17.80
  -6   5   4  443.76   14.00
   1  -6   4  457.75   13.70
  -5   0  -4  476.75   14.60
   5  -5  -4  476.75   13.80
   5  -5  -4  480.85   13.90
  -5   0  -4  478.45   12.80
   0   5  -4  482.05   15.30
   0   5  -4  481.05   13.70
   0  -5   4  488.05   14.30
   0  -5   4  460.35   14.10
  -5   5   4  476.15   16.20
  -5   5   4  457.45   13.70
   0  -5   4  450.45   14.40
   4  -5  -4  110.99    5.70
   1   4  -4  104.69    5.70
  -5   1  -4  104.89    6.90
   4  -5  -4   99.99    7.60
   4  -5  -4  110.99    5.80
   1   4  -4  103.69    8.00
   5  -1   4  110.49    3.30
  -1  -4   4  104.99    5.50
  -4   5   4  110.69    5.90
  -1  -4   4  100.49    6.70
  -1  -4   4  103.59    6.30
  -4   5   4  111.69    7.30
  -5   2  -4  522.75   15.30
  -5   2  -4  520.85   13.90
   3  -5  -4  499.05   15.10
   3  -5  -4  489.55   14.20
   2   3  -4  524.35   14.30
   2   3  -4  508.35   16.10
   3  -5  -4  539.05   13.90
  -2  -3   4  493.25   14.20
  -3   5   4  521.35   14.30
   5  -2   4  514.15   13.40
   5  -2   4  521.25   13.00
  -2  -3   4  510.35   15.60
  -2  -3   4  512.45   14.70
  -3   5   4  516.15   14.60
   2  -5  -4  519.05   14.20
   2  -5  -4  509.15   14.60
   3   2  -4  508.35   14.40
  -5   3  -4  529.75   15.30
   2  -5  -4  523.75   13.60
  -5   3  -4  508.55   14.20
   3   2  -4  527.45   16.70
   3   2  -4  530.65   14.80
  -3  -2   4  526.45   16.30
  -2   5   4  508.25   13.90
   5  -3   4  515.45   13.90
  -3  -2   4  524.35   14.80
  -3  -2   4  503.25   14.20
  -5   4  -4   93.29    6.60
   1  -5  -4  104.49    5.20
   4   1  -4  113.39    9.50
   1  -5  -4  103.19    4.00
   4   1  -4   99.89    5.80
  -5   4  -4  110.29    6.00
   1  -5  -4  105.19    5.40
   4   1  -4  101.69    6.10
  -1   5   4   99.29    4.20
  -4  -1   4  103.19    6.30
   5  -4   4  122.29    5.80
  -4  -1   4  104.59    9.00
  -4  -1   4  110.79    5.40
  -5   5  -4  472.75   15.00
   5   0  -4  478.95   17.10
   0  -5  -4  470.35   13.00
   5   0  -4  460.15   13.70
  -5   5  -4  491.25   13.90
   0  -5  -4  453.75   11.90
   5   0  -4  490.65   14.10
   0  -5  -4  461.55   13.10
  -5   0   4  495.05   14.20
   5  -5   4  482.45   13.80
  -5   0   4  479.25   17.40
  -1  -5  -4  450.35   12.60
  -1  -5  -4  457.25   13.00
  -5   6  -4  491.95   15.30
  -5   6  -4  461.95   14.10
   6  -1  -4  470.05   14.00
   6  -1  -4  470.45   14.20
  -6   1   4  470.85   14.10
   5  -6   4  466.25   14.00
  -6   1   4  455.85   18.20
   7  -2  -4  131.59    8.20
  -2  -5  -4  127.69    4.20
  -5   7  -4  138.39    8.50
  -5   7  -4  128.79    9.90
  -2  -5  -4  132.69    6.50
  -2  -5  -4  123.79    5.40
   7  -2  -4  129.79    8.00
   7  -2  -4  129.09    8.60
  -7   2   4  141.89   15.20
   5  -7   4  131.89    7.80
  -7   2   4  118.99    8.40
  -3  -5  -4  202.98    8.70
  -5   8  -4  186.58   12.00
   8  -3  -4  202.18   10.40
   8  -3  -4  218.68   11.00
  -3  -5  -4  182.28    6.30
  -3  -5  -4  182.78    6.30
  -3  -5  -4  193.98    6.30
  -8   3   4  189.48   18.30
   5  -8   4  198.68   10.00
   9  -4  -4   65.69    8.40
  -4  -5  -4   56.39    5.30
  -5   9  -4   60.99    8.00
   9  -4  -4   51.89    7.20
  -9   4   4   60.69   15.50
   5  -9   4   51.19    6.90
  -6  -3  -4   13.00    7.20
   9  -6  -4   25.70    7.50
   9  -6  -4   27.20    6.80
  -9   6   4   22.90   14.90
   3  -9   4   23.50    6.60
  -6  -2  -4   19.60    6.30
   8  -6  -4   23.60    6.20
  -2   8  -4   21.20    6.60
   8  -6  -4   32.20    6.70
  -8   6   4    6.60   12.40
   2  -8   4   22.00    5.70
  -6  -1  -4  192.58    8.40
   7  -6  -4  195.18    9.50
  -6  -1  -4  208.38   11.00
   7  -6  -4  221.48    9.60
  -1   7  -4  197.38   11.40
  -1   7  -4  177.88    9.80
   1  -7   4  179.38    8.80
  -7   6   4  209.58   15.60
   1  -7   4  192.98    9.00
   0   6  -4 1012.30   27.80
   0   6  -4  957.10   26.10
  -6   0  -4 1011.30   27.60
   6  -6  -4  992.20   26.50
   6  -6  -4 1004.90   26.30
  -6   0  -4  996.40   25.50
   0  -6   4  953.40   26.90
  -6   6   4  959.40   26.60
   0  -6   4  989.40   26.40
   0  -6   4 1020.70   26.20
  -6   6   4 1049.49   29.30
  -6   1  -4  461.75   15.70
   1   5  -4  449.46   13.80
   5  -6  -4  471.75   13.90
   5  -6  -4  480.15   14.10
   1   5  -4  481.65   16.20
  -6   1  -4  459.55   13.40
  -5   6   4  476.55   15.80
  -5   6   4  471.15   14.40
  -1  -5   4  463.15   13.80
  -1  -5   4  477.85   14.80
  -1  -5   4  460.75   14.80
   4  -6  -4   34.70    3.80
  -6   2  -4   39.40    5.60
  -6   2  -4   41.60    3.90
   2   4  -4   34.50    6.30
   2   4  -4   41.30    4.30
   4  -6  -4   49.50    3.90
  -2  -4   4   29.80    3.70
  -2  -4   4   37.40    5.30
  -4   6   4   43.60    4.70
  -2  -4   4   31.70    4.40
   6  -2   4   40.70    3.80
   6  -2   4   37.40    2.50
   3  -6  -4   42.00    3.40
  -6   3  -4   40.50    5.60
   3   3  -4   39.00    6.50
   3   3  -4   40.40    4.30
  -6   3  -4   47.30    4.00
   3  -6  -4   39.60    3.80
  -3  -3   4   49.40    5.00
  -3  -3   4   43.70    6.10
  -3   6   4   49.90    4.00
   6  -3   4   39.10    3.30
   6  -3   4   40.80    3.60
  -3  -3   4   37.00    3.70
   2  -6  -4   47.50    4.00
  -6   4  -4   36.70    4.20
  -6   4  -4   33.60    4.90
   4   2  -4   39.30    4.30
   4   2  -4   40.90    7.30
   2  -6  -4   38.30    3.70
  -4  -2   4   38.10    4.50
   6  -4   4   37.80    4.00
  -4  -2   4   31.70    3.70
  -4  -2   4   44.20    6.80
  -2   6   4   39.10    3.40
   6  -4   4   40.70    3.90
   1  -6  -4  451.65   11.90
  -6   5  -4  478.65   15.10
   1  -6  -4  428.56   12.20
   5   1  -4  461.65   13.70
   1  -6  -4  449.16   13.10
   5   1  -4  447.86   17.70
  -6   5  -4  454.35   13.70
   5   1  -4  451.05   14.00
  -5  -1   4  430.36   19.50
   6  -5   4  474.55   13.70
  -5  -1   4  462.05   14.00
   6   0  -4  972.80   26.60
  -6   6  -4  922.71   26.40
   6   0  -4  983.90   26.60
   0  -6  -4 1005.50   24.60
  -6   6  -4 1036.40   27.90
   0  -6  -4 1004.60   25.80
  -6   0   4 1007.40   26.70
  -6   0   4 1065.59   30.60
   6  -6   4 1019.00   26.50
  -6   7  -4  183.98   11.70
  -1  -6  -4  191.98    5.80
   7  -1  -4  186.98   10.20
   7  -1  -4  193.78    9.40
  -1  -6  -4  184.58    7.60
   6  -7   4  180.38    9.30
  -7   1   4  199.28   16.10
  -2  -6  -4   17.70    3.40
  -6   8  -4   18.10    7.40
  -2  -6  -4   16.50    2.60
   8  -2  -4   19.60    5.30
   8  -2  -4   26.30    6.70
  -2  -6  -4   17.70    3.60
  -2  -6  -4   17.20    3.60
   6  -8   4   16.50    5.90
  -8   2   4   25.20   12.00
   9  -3  -4   34.30    8.10
   9  -3  -4   21.20    6.90
  -3  -6  -4   28.50    3.40
  -6   9  -4   17.00    8.60
   6  -9   4   25.30    7.00
  -9   3   4   25.80   14.70
   9  -7  -4   54.19    7.80
   9  -7  -4   60.99    8.40
  -9   7   4   67.79   16.40
   2  -9   4   60.99    7.80
  -7  -1  -4   13.60    5.30
  -1   8  -4   10.40    7.00
   8  -7  -4    0.30    5.60
   8  -7  -4   11.00    6.50
   1  -8   4    1.40    5.40
  -8   7   4   25.20   12.30
   0   7  -4   77.99    6.60
  -7   0  -4   86.59    7.90
   7  -7  -4   87.99    6.90
   0   7  -4   87.69    8.30
   7  -7  -4   69.59    6.60
   0  -7   4   72.59    6.10
  -7   7   4   71.09   10.30
   0  -7   4   92.29    7.70
   6  -7  -4  205.38    9.60
  -7   1  -4  185.78    8.70
   1   6  -4  215.48   12.30
   6  -7  -4  197.48    9.00
   1   6  -4  180.38    9.10
  -1  -6   4  176.68    8.80
  -6   7   4  191.78   12.40
  -1  -6   4  205.58    9.70
   5  -7  -4  143.59    8.00
   5  -7  -4  109.39    9.80
   2   5  -4  133.89   11.60
   2   5  -4  119.89    7.70
  -7   2  -4  127.29    8.20
   7  -2   4  127.49    5.40
  -2  -5   4  129.39   10.00
   7  -2   4  135.29    5.40
  -2  -5   4  136.39    7.50
  -2  -5   4  111.19    9.20
  -5   7   4  133.49    9.30
   7  -2   4  135.99    4.50
   3   4  -4  297.07   11.00
   4  -7  -4  306.87   10.90
   4  -7  -4  312.87    9.90
  -7   3  -4  303.77   11.10
   3   4  -4  311.77   14.90
  -3  -4   4  304.97   11.90
   7  -3   4  305.47    8.70
   7  -3   4  308.17   10.00
  -3  -4   4  313.67   13.10
  -4   7   4  308.97   10.50
  -3  -4   4  303.07   10.60
   3  -7  -4  296.57   11.00
  -7   4  -4  321.07   14.70
   3  -7  -4  302.87    9.50
   4   3  -4  309.87   11.30
  -7   4  -4  304.97   11.10
   4   3  -4  313.17   15.50
  -4  -3   4  298.07   10.80
  -3   7   4  305.87    9.00
  -4  -3   4  298.27   11.50
   7  -4   4  310.77    9.20
   7  -4   4  315.17   10.70
  -4  -3   4  293.07   15.60
   5   2  -4  116.29    8.00
   5   2  -4  117.29    8.40
   5   2  -4  136.19   11.40
   2  -7  -4  139.59    5.70
  -7   5  -4  128.09    8.70
   2  -7  -4  133.69    7.60
   7  -5   4  124.89    9.50
  -5  -2   4  118.29    7.50
  -5  -2   4  111.29    8.60
  -5  -2   4  134.99   12.50
   7  -5   4  138.49    6.40
   6   1  -4  187.28    9.60
   6   1  -4  182.98    9.70
   1  -7  -4  192.68    6.60
   1  -7  -4  190.58    8.60
   7  -6   4  190.88    8.30
  -6  -1   4  214.38   14.90
   7  -6   4  193.38   10.20
   7   0  -4   78.79    6.70
   0  -7  -4   81.39    7.10
   7   0  -4   65.79    7.00
   0  -7  -4   81.39    4.50
   7  -7   4   64.89    5.70
  -7   0   4   90.59   12.00
   7  -7   4   80.79    6.90
  -1  -7  -4   12.10    2.80
   8  -1  -4   13.00    7.00
  -1  -7  -4   10.20    4.50
   8  -1  -4   12.00    6.10
  -8   1   4   17.00   12.60
   7  -8   4   12.00    6.60
   7  -8   4   10.60    5.60
  -2  -7  -4   61.69    5.70
   9  -2  -4   62.39    8.00
   9  -2  -4   59.69    8.70
   7  -9   4   63.49    8.10
   7  -9   4   67.19    8.60
  -9   2   4   66.19   14.90
   9  -8  -4   60.99    7.70
   9  -8  -4   81.69   13.50
  -9   8   4   83.99   16.90
   8  -8  -4   12.20    6.60
  -8   0  -4   24.00    6.70
   8  -8  -4    7.70    5.80
   0  -8   4   14.40    5.50
  -8   8   4   15.80   11.90
   0  -8   4   16.20    6.60
   1   7  -4   23.00    8.30
   7  -8  -4    8.30    5.40
   7  -8  -4    9.90    5.70
  -8   1  -4    7.40    6.30
  -1  -7   4   13.90    5.90
  -1  -7   4   12.10    5.50
  -7   8   4   15.90   15.50
   2   6  -4   11.10    5.70
  -8   2  -4   19.50    5.90
   2   6  -4   21.80    8.60
   6  -8  -4   19.90    5.10
   6  -8  -4   17.20    5.00
   8  -2   4   12.50    2.80
   8  -2   4   16.80    3.00
  -2  -6   4   11.30    6.10
  -2  -6   4   10.40    5.20
  -6   8   4   22.10    7.10
   3   5  -4  171.98   14.70
   5  -8  -4  206.78    8.80
  -8   3  -4  185.38   10.60
   3   5  -4  185.98   10.20
   5  -8  -4  199.08   10.10
  -3  -5   4  182.88    9.30
   8  -3   4  204.58    6.90
   8  -3   4  202.18    7.90
  -5   8   4  200.58    9.80
  -3  -5   4  186.48   12.00
   8  -3   4  193.58    8.30
   4   4  -4  543.65   16.70
   4   4  -4  556.64   22.40
   4  -8  -4  543.55   17.10
  -8   4  -4  551.64   18.20
   8  -4   4  569.94   15.00
  -4   8   4  545.25   15.10
  -4  -4   4  567.44   19.70
   8  -4   4  538.35   16.50
  -4  -4   4  556.74   16.70
   3  -8  -4  193.78   10.20
   5   3  -4  176.28   10.60
   3  -8  -4  195.48    7.80
  -5  -3   4  196.28    9.70
   8  -5   4  195.78   10.60
  -5  -3   4  200.08   14.70
   8  -5   4  201.98    8.10
   2  -8  -4   19.40    3.60
   2  -8  -4   16.70    5.20
   6   2  -4   10.70    5.60
   8  -6   4   18.00    6.40
   8  -6   4   20.30    4.30
  -6  -2   4   14.00    9.30
   7   1  -4   12.10    6.90
   7   1  -4   10.90    6.10
   1  -8  -4   12.10    3.40
   1  -8  -4   12.50    5.20
   8  -7   4    9.90    4.70
   8  -7   4    3.30    6.90
  -7  -1   4   28.40   11.70
   8   0  -4   19.40    6.80
   0  -8  -4   13.30    3.60
   8   0  -4   12.80    7.70
   8  -8   4   17.70    7.70
  -8   0   4   18.60   13.00
   8  -8   4   14.10    5.80
   9  -1  -4   69.39    8.00
   9  -1  -4   70.09    9.60
  -1  -8  -4   70.29    6.80
   8  -9   4   74.69    9.40
   8  -9   4   58.79    7.30
  -9   1   4   87.09   15.80
   8  -9  -4   69.49    8.30
   8  -9  -4   73.59    8.40
  -1  -8   4   87.59   11.50
  -8   9   4   90.39   13.20
   7  -9  -4   54.99    7.30
   7  -9  -4   65.19    7.20
  -2  -7   4   56.29    7.50
  -7   9   4   74.69   10.00
  -2  -7   4   51.69    7.40
   6  -9  -4   28.80    7.00
   6  -9  -4   29.40    5.70
  -3  -6   4   24.40    7.60
   9  -3   4   25.90    5.00
  -6   9   4   33.20    6.90
  -3  -6   4   24.30    6.10
   5  -9  -4   47.80    6.80
   5  -9  -4   50.49    5.50
  -4  -5   4   46.50    6.40
  -4  -5   4   44.80    9.00
   9  -4   4   64.59    6.50
   9  -4   4   55.09    4.40
   4  -9  -4   42.60    5.20
   4  -9  -4   45.40    6.90
   9  -5   4   53.29    7.30
   9  -5   4   58.29    4.80
  -5  -4   4   84.39   10.60
  -5  -4   4   53.09    6.80
   3  -9  -4   23.10    4.60
   3  -9  -4   28.50    6.50
  -6  -3   4   22.30    6.30
  -6  -3   4   28.40   11.00
   9  -6   4   23.00    5.10
   9  -6   4   20.50    7.80
   7   2  -4   46.50    7.90
   7   2  -4   63.09    8.90
   2  -9  -4   62.99    7.00
   9  -7   4   59.49    9.40
   9  -7   4   60.69    6.10
  -7  -2   4   77.69   13.60
   8   1  -4   52.49    9.70
   1  -9  -4   91.49    6.90
   1  -9  -4   93.09    8.10
   8   1  -4   68.39    8.00
   9  -8   4   79.39    7.50
   9  -8   4   68.79   10.40
  -8  -1   4  117.69   16.20
   0   0  -5   -4.70    3.20
   0   0  -5   -1.20    1.80
   0   0  -5   -0.90    1.80
   0   0   5    1.00    1.80
   0   0   5    0.30    2.70
   0   1  -5  132.69    5.20
  -1   0  -5  135.29    6.60
  -1   0  -5  140.09    4.70
   1  -1  -5  133.09    5.20
   0   1  -5  128.49    6.70
   1  -1  -5  139.89    4.80
   1  -1  -5  132.39    7.00
  -1   0  -5  131.69    4.70
   0  -1   5  130.19    4.70
  -1   1   5  123.39    5.70
   0  -1   5  129.99    5.20
   1   0   5  139.09    6.10
   0  -1   5  136.69    6.50
  -1   1   5  136.39    6.50
   1   0   5  135.29    4.70
   1   0  -5  135.49    7.20
   0  -1  -5  140.59    4.60
   1   0  -5  129.09    5.30
   0  -1  -5  128.09    4.90
   0  -1  -5  138.79    6.60
   1   0  -5  139.79    5.10
  -1   1  -5  140.99    5.10
  -1   1  -5  128.29    6.30
  -1   0   5  136.99    5.40
   1  -1   5  135.29    4.50
   1  -1   5  132.09    5.00
   0   1   5  125.89    6.00
   0   1   5  146.69    4.80
  -1   0   5  140.09    6.70
   1  -1   5  137.39    6.20
  -1   2  -5    4.40    3.30
  -1  -1  -5   -3.30    1.50
   2  -1  -5   -0.70    3.50
   2  -1  -5   -0.60    2.20
  -1   2  -5   -1.80    2.20
  -1  -1  -5    0.60    3.10
  -1  -1  -5   -0.10    1.50
   1  -2   5   -0.50    2.10
   1   1   5   -0.30    1.40
   1  -2   5    1.50    1.90
  -2   1   5   -1.80    2.30
   1   1   5   -1.10    2.50
   1  -2   5   -2.70    3.00
  -2   1   5   -1.70    3.20
  -2  -1  -5   75.29    3.20
  -2  -1  -5   88.79    6.00
   3  -2  -5   79.89    7.20
  -1   3  -5   66.69    6.50
   3  -2  -5   74.59    4.80
  -1   3  -5   76.79    4.70
   3  -2  -5   70.39    4.50
  -3   2   5   80.39    4.70
   2   1   5   69.69    2.70
   1  -3   5   74.69    4.50
  -3   2   5   86.89    6.90
   1  -3   5   72.59    5.10
   1  -3   5   68.09    5.60
   2  -2  -5  872.11   23.70
   0   2  -5  868.41   22.20
   2  -2  -5  866.51   22.30
  -2   0  -5  874.11   23.10
  -2   0  -5  867.21   21.60
   0   2  -5  863.01   23.50
   2  -2  -5  875.81   21.90
   0  -2   5  862.11   22.40
  -2   2   5  860.41   23.30
  -2   2   5  888.61   22.10
   2   0   5  853.51   21.40
   0  -2   5  869.31   22.00
   0  -2   5  862.41   23.20
   2   0   5  866.01   22.70
   1   1  -5   -2.60    2.30
  -2   1  -5   -1.10    2.90
   1   1  -5    0.30    3.20
   1   1  -5   -2.80    2.30
   1  -2  -5    3.30    3.20
  -2   1  -5   -0.80    1.90
   1  -2  -5   -1.20    1.60
   1  -2  -5    0.70    1.90
  -1  -1   5    0.70    2.20
   2  -1   5   -0.80    2.50
  -1   2   5   -1.60    2.90
  -1  -1   5   -2.80    1.90
  -1  -1   5   -0.60    3.40
  -1   2   5   -1.30    1.80
   2  -1   5    0.20    1.60
   2  -1   5    0.90    1.40
   0  -2  -5  871.71   23.10
   2   0  -5  888.81   22.30
  -2   2  -5  903.61   23.40
   2   0  -5  868.91   24.00
   2   0  -5  842.32   22.50
  -2   2  -5  857.51   22.00
   0  -2  -5  887.61   21.90
   0  -2  -5  865.01   21.50
   0   2   5  884.41   22.70
   0   2   5  859.81   21.70
  -2   0   5  900.11   22.50
   2  -2   5  874.61   21.90
  -2   0   5  829.02   23.60
   2  -2   5  879.21   22.10
   2  -2   5  839.92   22.90
   3  -1  -5   75.19    4.70
  -2   3  -5   75.19    4.60
  -1  -2  -5   72.39    3.30
   3  -1  -5   72.29    4.90
   3  -1  -5   78.19    7.50
  -1  -2  -5   73.49    2.80
  -1  -2  -5   69.29    5.70
  -2   3  -5   77.49    6.20
   2  -3   5   72.69    5.50
   2  -3   5   72.59    4.90
  -3   1   5   65.09    6.90
  -3   1   5   75.39    4.90
   2  -3   5   77.49    4.20
   1   2   5   70.89    3.10
   1   2   5   76.49    4.80
  -2  -2  -5    0.70    1.40
  -2   4  -5    4.50    3.00
  -2  -2  -5    1.40    1.20
  -2   4  -5   -1.40    3.90
   4  -2  -5   -1.90    2.90
   4  -2  -5    0.30    2.80
  -2  -2  -5    2.10    3.40
   4  -2  -5   -4.70    5.00
  -4   2   5   -0.80    3.10
   2  -4   5   -1.40    2.90
   2  -4   5    0.80    3.40
   2  -4   5    4.00    2.70
  -4   2   5    2.40    5.20
  -2   5  -5   36.80    4.20
  -2   5  -5   31.20    5.40
   5  -3  -5   29.10    3.90
  -3  -2  -5   30.00    2.30
   5  -3  -5   29.10    6.60
  -3  -2  -5   31.90    4.40
  -5   3   5   29.10    7.10
   2  -5   5   21.60    4.10
  -5   3   5   29.20    4.10
   2  -5   5   20.00    4.30
  -3  -1  -5   86.89    3.50
   4  -3  -5   84.09    5.60
  -3  -1  -5   90.39    6.50
   4  -3  -5   87.29    5.10
   4  -3  -5   85.59    8.60
  -1   4  -5   86.49    5.50
  -1   4  -5   93.49    7.50
  -4   3   5   89.09    5.70
  -4   3   5   81.79    6.90
   1  -4   5   93.39    6.30
   1  -4   5   87.89    6.20
   1  -4   5   84.09    5.50
   3  -3  -5    4.50    4.40
  -3   0  -5    2.00    1.80
   3  -3  -5    1.90    2.40
   0   3  -5    6.30    4.40
   0   3  -5    3.80    2.70
  -3   0  -5    4.40    3.20
  -3   3   5   -5.80    3.30
  -3   3   5   -0.90    2.40
   0  -3   5    0.80    2.60
   3   0   5    1.50    0.90
   0  -3   5    1.50    3.60
   0  -3   5   -0.10    3.00
   1   2  -5   82.19    5.00
   2  -3  -5   82.29    6.50
   2  -3  -5   75.89    4.40
   1   2  -5   68.39    5.10
   1   2  -5   76.09    6.90
  -3   1  -5   81.89    6.10
  -3   1  -5   79.89    3.90
   3  -1   5   71.69    3.30
  -1  -2   5   76.39    4.50
  -2   3   5   76.19    4.50
  -1  -2   5   73.39    4.90
   3  -1   5   77.19    2.90
  -1  -2   5   68.89    6.50
  -2   3   5   75.49    5.70
   1  -3  -5   72.49    4.10
  -3   2  -5   80.59    4.40
   1  -3  -5   67.79    5.80
   2   1  -5   78.99    5.00
   2   1  -5   74.19    7.40
  -3   2  -5   65.59    6.30
   2   1  -5   68.89    5.00
  -2  -1   5   73.19    6.80
  -2  -1   5   74.69    5.00
  -2  -1   5   75.99    4.50
  -1   3   5   79.89    5.10
   3  -2   5   71.99    4.00
  -1   3   5   72.89    4.00
   3  -2   5   79.69    3.70
  -3   3  -5   -0.90    2.40
   3   0  -5   -2.70    4.40
   0  -3  -5    5.20    3.70
   3   0  -5    2.70    2.80
   0  -3  -5    3.60    1.90
  -3   3  -5    3.40    3.80
   3   0  -5    0.10    2.90
   3  -3   5    2.30    2.30
  -3   0   5    1.90    2.90
   0   3   5    3.20    2.70
   0   3   5    3.40    1.80
   3  -3   5    4.00    2.40
  -3   0   5   -1.70    4.40
  -1  -3  -5   84.39    3.80
   4  -1  -5   77.49    5.80
   4  -1  -5  100.49    8.30
  -1  -3  -5   91.99    6.20
  -3   4  -5   92.59    7.50
   4  -1  -5   93.29    5.50
  -3   4  -5   85.39    5.20
   3  -4   5   94.79    5.20
   3  -4   5   80.99    5.60
  -4   1   5   84.69    5.90
  -4   1   5   95.79    9.10
   5  -2  -5   27.00    7.30
  -2  -3  -5   28.20    4.10
   5  -2  -5   27.90    6.90
  -3   5  -5   19.70    5.30
   5  -2  -5   25.60    4.10
  -3   5  -5   27.90    3.90
   3  -5   5   33.60    4.00
   3  -5   5   30.50    4.50
  -5   2   5   31.30    4.40
  -5   2   5   37.00   12.40
   6  -3  -5    2.40    4.30
  -3  -3  -5    8.00    4.30
   6  -3  -5   -6.80    4.20
  -3   6  -5   -1.50    4.00
   6  -3  -5    4.90    7.80
  -3  -3  -5    3.50    1.40
  -3   6  -5    0.90    5.40
   3  -6   5   -5.70    3.90
   3  -6   5   -0.30    5.20
  -6   3   5   11.00    7.80
  -6   3   5    7.00    4.60
   7  -4  -5    8.70    5.30
   7  -4  -5    1.30    4.80
  -3   7  -5    3.50    6.80
  -4  -3  -5    5.40    2.50
  -4  -3  -5    7.70    5.10
  -7   4   5    4.70   10.20
   3  -7   5    5.10    4.70
   6  -4  -5  204.78    8.80
   6  -4  -5  217.58    9.50
  -4  -2  -5  209.18    6.50
   6  -4  -5  214.58    9.50
  -4  -2  -5  210.58    9.80
  -2   6  -5  217.88   11.70
  -2   6  -5  196.78    9.00
  -6   4   5  206.08    9.40
  -6   4   5  229.58   14.50
   2  -6   5  205.98    8.80
   2  -6   5  191.18   10.30
   2  -6   5  237.48    9.60
   5  -4  -5   -2.80    6.20
  -4  -1  -5    2.60    4.20
  -1   5  -5   -0.40    3.70
  -4  -1  -5    0.80    1.90
   5  -4  -5    2.40    4.10
  -1   5  -5   -3.70    5.10
   1  -5   5    5.00    4.30
   1  -5   5    4.50    3.30
  -5   4   5    5.00    3.80
   1  -5   5   -3.80    3.90
  -5   4   5    2.60    6.10
   4  -4  -5  440.86   12.80
  -4   0  -5  410.76   11.30
   4  -4  -5  425.86   14.80
  -4   0  -5  427.96   13.60
   0   4  -5  411.76   14.60
   0   4  -5  405.46   12.50
   0  -4   5  421.66   13.60
  -4   4   5  440.26   12.70
   0  -4   5  441.36   13.20
  -4   4   5  413.16   14.40
   0  -4   5  429.46   12.50
   3  -4  -5   86.09    5.40
   3  -4  -5   81.99    7.50
   1   3  -5   81.99    5.50
  -4   1  -5   97.89    6.90
   1   3  -5   94.09    8.10
  -4   1  -5   88.09    4.50
   4  -1   5   87.09    3.10
  -3   4   5   85.39    5.30
  -1  -3   5   85.39    5.20
  -1  -3   5   95.49    7.10
  -1  -3   5   80.59    5.70
  -3   4   5   88.79    6.70
   2  -4  -5    1.30    3.60
   2   2  -5    8.40    5.30
   2   2  -5    3.60    3.10
  -4   2  -5   -4.70    2.30
   2  -4  -5   -2.70    2.50
  -4   2  -5   -2.20    4.00
   2   2  -5    0.40    3.20
  -2   4   5   -2.20    3.20
  -2  -2   5    2.30    3.00
   4  -2   5   -2.80    1.90
   4  -2   5   -0.20    2.00
  -2   4   5   -0.80    2.40
  -2  -2   5   -0.90    2.60
  -2  -2   5    2.20    4.10
   3   1  -5   85.99    5.90
  -4   3  -5   89.39    5.00
   3   1  -5   85.89    5.60
   1  -4  -5   89.09    4.90
  -4   3  -5   93.59    7.40
   3   1  -5   90.29    9.00
   1  -4  -5   84.49    6.50
  -1   4   5   87.29    5.40
   4  -3   5   80.69    4.80
  -3  -1   5   93.69    8.10
  -3  -1   5   95.69    5.10
  -1   4   5   85.09    4.80
  -3  -1   5   94.99    6.00
   4  -3   5   78.49    4.70
   0  -4  -5  423.46   12.90
   0  -4  -5  421.46   11.60
   4   0  -5  395.86   12.90
  -4   4  -5  430.06   14.10
   4   0  -5  415.46   15.70
   4   0  -5  423.26   12.60
  -4   4  -5  404.26   12.30
  -4   0   5  439.06   12.90
  -4   0   5  443.96   15.70
   4  -4   5  397.96   12.50
   0   4   5  436.66   12.00
   4  -4   5  427.96   12.30
   5  -1  -5   -6.60    6.40
  -1  -4  -5    1.50    2.00
  -4   5  -5    5.90    3.60
  -1  -4  -5    3.90    4.30
   5  -1  -5   -0.10    3.50
   5  -1  -5    1.00    3.30
  -4   5  -5    3.50    5.40
   4  -5   5    1.70    3.50
  -5   1   5   -0.70    3.90
  -5   1   5   -0.50    6.90
  -4   6  -5  217.28   11.40
   6  -2  -5  201.48    9.30
  -2  -4  -5  210.48    9.20
   6  -2  -5  221.88    9.50
  -2  -4  -5  211.28    6.20
  -4   6  -5  213.18    9.30
   4  -6   5  220.48    9.10
  -6   2   5  249.48   15.40
  -6   2   5  201.98    9.70
   7  -3  -5    0.20    5.50
  -3  -4  -5    5.80    1.80
   7  -3  -5   13.90    5.30
  -3  -4  -5   -3.40    4.70
  -4   7  -5    3.30    6.60
   4  -7   5    4.10    5.00
  -7   3   5   -5.40   10.80
  -4   8  -5   -2.30    7.70
  -4  -4  -5   -2.90    5.80
   8  -4  -5    0.20    6.10
   8  -4  -5    8.00    6.40
  -8   4   5   -5.60   12.10
   4  -8   5    1.20    6.00
   9  -5  -5   -6.40    8.30
   9  -5  -5   -2.80    7.40
  -4   9  -5   -2.00    9.30
   4  -9   5   -1.30    7.20
  -9   5   5   18.20   15.00
  -5  -3  -5   23.00    6.60
  -5  -3  -5   25.90    4.50
   8  -5  -5   29.10    6.90
  -3   8  -5   28.30    8.50
   8  -5  -5   25.90    6.40
   3  -8   5   26.00    6.00
  -8   5   5   19.00   12.70
   7  -5  -5    0.70    5.20
  -2   7  -5   -8.00    6.70
  -5  -2  -5    3.60    3.20
  -5  -2  -5    0.50    5.60
   7  -5  -5    1.10    4.50
   2  -7   5   -3.30    4.80
  -7   5   5    6.90   10.00
  -1   6  -5   35.00    5.00
   6  -5  -5   39.50    5.30
  -1   6  -5   25.60    7.60
   6  -5  -5   43.70    5.60
  -5  -1  -5   40.90    3.50
  -5  -1  -5   25.10    5.50
   1  -6   5   28.60    4.60
  -6   5   5   36.80    8.90
   1  -6   5   35.90    5.10
   0   5  -5    5.80    6.00
   5  -5  -5    1.90    3.80
  -5   0  -5    1.40    4.70
   0   5  -5    0.50    4.00
  -5   0  -5    0.70    3.10
   5  -5  -5    7.50    6.40
   0  -5   5    4.20    3.70
   0  -5   5   -2.00    4.60
   0  -5   5    4.30    4.60
  -5   5   5    1.10    3.90
  -5   5   5    3.40    5.90
   1   4  -5   -0.20    3.80
   4  -5  -5    0.00    3.10
   1   4  -5    0.90    5.80
  -5   1  -5    1.90    2.80
   4  -5  -5   -3.20    5.10
  -5   1  -5    2.80    4.50
   4  -5  -5    0.20    3.50
  -4   5   5    4.90    3.60
  -1  -4   5   -0.80    3.30
  -4   5   5    2.00    4.50
  -1  -4   5   -1.50    3.90
  -1  -4   5    4.10    4.50
   3  -5  -5   29.00    5.00
   2   3  -5   33.70    4.30
  -5   2  -5   27.90    3.40
   3  -5  -5   34.10    4.00
   2   3  -5   36.90    6.70
  -5   2  -5   23.40    5.10
  -2  -3   5   23.10    3.50
  -2  -3   5   26.50    5.90
  -3   5   5   36.90    4.60
   5  -2   5   28.70    2.40
  -3   5   5   26.20    3.60
   5  -2   5   32.00    2.40
  -2  -3   5   18.80    4.40
   5  -2   5   29.40    2.50
   3   2  -5   36.20    7.10
   3   2  -5   31.60    7.30
   3   2  -5   26.10    3.90
  -5   3  -5   31.70    3.60
   2  -5  -5   33.00    5.60
   2  -5  -5   33.40    3.70
  -5   3  -5   32.70    5.20
  -3  -2   5   31.00    3.80
   5  -3   5   33.20    3.30
  -3  -2   5   32.40    4.50
  -3  -2   5   27.70    5.80
   5  -3   5   27.10    3.20
  -2   5   5   31.20    3.80
  -5   4  -5    7.90    5.10
   4   1  -5    1.30    3.30
   4   1  -5    3.20    6.70
   4   1  -5   -1.00    3.80
   1  -5  -5    8.50    4.00
   1  -5  -5    3.10    2.90
  -5   4  -5    6.20    3.50
  -1   5   5    2.90    2.50
   5  -4   5    0.60    3.20
  -4  -1   5    3.00    4.00
  -4  -1   5    0.10   10.70
  -4  -1   5   -1.30    3.30
   5   0  -5   -2.40    4.10
   5   0  -5   -4.00    7.10
   0  -5  -5    3.60    3.90
   0  -5  -5    0.40    2.70
   5   0  -5    5.40    3.50
  -5   5  -5    1.80    4.00
  -5   5  -5   -3.60    5.70
  -5   0   5    4.70    7.20
   5  -5   5    1.50    3.90
  -5   0   5   -1.90    4.20
  -5   6  -5   31.50    6.80
  -1  -5  -5   40.10    4.70
   6  -1  -5   22.50    4.90
  -5   6  -5   29.20    5.20
  -1  -5  -5   35.30    3.10
   6  -1  -5   26.90    4.70
  -6   1   5   37.50    9.80
   5  -6   5   41.00    5.40
  -2  -5  -5    2.20    4.80
   7  -2  -5    0.70    5.00
   7  -2  -5   -6.70    5.40
  -2  -5  -5   -0.30    2.20
  -5   7  -5    3.00    7.30
  -7   2   5    0.90   11.10
   5  -7   5   -0.10    5.20
  -3  -5  -5   25.80    5.80
  -3  -5  -5   26.10    2.40
   8  -3  -5   26.90    7.10
   8  -3  -5   27.60    6.00
  -8   3   5    4.20   13.10
   5  -8   5   26.80    6.80
   9  -4  -5   -3.10    7.40
   9  -4  -5   -3.70    7.60
  -9   4   5  -14.80   14.20
   5  -9   5   -5.00    7.40
   9  -6  -5   -9.20    7.40
   9  -6  -5   10.30    8.40
   3  -9   5    2.20    9.90
  -9   6   5    7.20   16.60
  -2   8  -5   59.69    9.50
  -6  -2  -5   53.69    9.40
  -6  -2  -5   56.59    6.00
   8  -6  -5   57.89    8.00
   8  -6  -5   59.39    7.80
   2  -8   5   43.70    6.50
  -8   6   5   50.19   13.20
  -1   7  -5   26.40    8.20
   7  -6  -5   21.50    5.60
   7  -6  -5   19.70    5.90
  -6  -1  -5    9.10    6.70
  -6  -1  -5   19.70    4.30
   1  -7   5   16.70    5.40
   1  -7   5   15.80    5.60
  -7   6   5   25.70   10.40
  -6   0  -5   -6.60    5.70
  -6   0  -5   -4.70    3.70
   0   6  -5    4.10    7.60
   6  -6  -5   -3.20    4.60
   6  -6  -5    1.80    4.60
   0  -6   5    1.40    4.30
   0  -6   5    5.70    5.10
   1   5  -5   31.50    5.00
   5  -6  -5   38.60    4.70
  -6   1  -5   41.20    6.80
   1   5  -5   30.80    7.80
   5  -6  -5   33.80    4.60
  -6   1  -5   34.60    4.10
  -1  -5   5   42.20    5.00
  -5   6   5   40.90    6.80
  -1  -5   5   40.30    6.20
  -5   6   5   28.50    5.10
   4  -6  -5  220.68    8.20
   2   4  -5  227.88   13.00
  -6   2  -5  212.18    8.20
   2   4  -5  201.08    9.10
   4  -6  -5  212.08    9.10
  -6   2  -5  195.48   10.80
   6  -2   5  204.98    5.90
  -4   6   5  191.88    9.80
   6  -2   5  211.38    6.20
  -4   6   5  205.18    9.40
   6  -2   5  211.38    5.80
  -2  -4   5  214.78    8.50
  -2  -4   5  179.38   10.00
  -2  -4   5  203.08   11.10
   3  -6  -5   -1.00    3.90
  -6   3  -5   -6.40    5.80
   3   3  -5   -7.60    7.10
  -6   3  -5   -1.00    3.80
   3  -6  -5    0.70    4.90
   3   3  -5   -5.70    4.20
   3  -6  -5    3.30    3.00
  -3   6   5   -1.60    3.50
   6  -3   5   -0.90    3.00
  -3  -3   5    0.00   10.30
  -3  -3   5   -5.20    4.60
   6  -3   5    1.90    2.00
  -3  -3   5   -1.10    3.60
  -6   4  -5  206.48   11.60
   4   2  -5  190.18    9.30
   4   2  -5  225.48   14.30
   2  -6  -5  202.98    9.20
  -6   4  -5  196.08    8.80
   2  -6  -5  215.78    8.70
   4   2  -5  197.88    9.30
   2  -6  -5  204.38    7.10
  -4  -2   5  208.18    9.80
   6  -4   5  212.38    7.30
  -2   6   5  210.28    7.50
  -4  -2   5  217.08   12.90
  -4  -2   5  212.18    8.60
   6  -4   5  209.38    8.60
   5   1  -5   41.20    4.90
   1  -6  -5   41.80    4.20
  -6   5  -5   30.90    8.80
  -6   5  -5   31.10    5.00
   1  -6  -5   34.80    2.80
   1  -6  -5   37.10    4.50
   5   1  -5   25.80    5.00
   5   1  -5   20.30    8.20
  -5  -1   5   30.90    8.00
   6  -5   5   29.60    4.90
   0  -6  -5    0.90    1.90
   0  -6  -5    1.00    3.40
   0  -6  -5   -2.50    3.60
   6   0  -5   -6.50    4.30
   6  -6   5   -5.60    4.70
  -6   0   5   -8.10    9.10
  -1  -6  -5   21.70    2.00
  -1  -6  -5   25.70    4.50
  -1  -6  -5   17.70    3.70
   7  -1  -5   27.40    5.90
  -7   1   5   22.30   10.80
   6  -7   5   15.20    5.80
   8  -2  -5   50.49    7.50
  -2  -6  -5   54.29    5.20
   8  -2  -5   61.79    8.20
   6  -8   5   51.99    7.70
  -8   2   5   64.59   14.30
   9  -3  -5    0.50    8.20
   9  -3  -5    1.90    7.60
   6  -9   5  -18.90    7.90
  -9   3   5   10.10   14.90
  -1   8  -5  -10.40    8.40
   8  -7  -5    3.80    7.10
   8  -7  -5    3.30    6.70
  -8   7   5    7.40   12.60
   1  -8   5    1.90    6.40
   0   7  -5   -2.40    8.80
   7  -7  -5   10.50    5.70
  -7   0  -5    5.00    5.10
   7  -7  -5   -2.20    6.00
  -7   7   5  -10.70    9.80
   0  -7   5   -2.70    5.50
   0  -7   5    3.00    6.70
  -7   1  -5   23.90    5.60
   1   6  -5    6.30    8.70
   6  -7  -5   13.20    5.20
   6  -7  -5   19.40    5.30
  -6   7   5   18.80    7.90
  -1  -6   5   13.40    7.40
  -1  -6   5   16.00    5.60
  -7   2  -5   -1.90    4.60
   2   5  -5    5.60    8.60
   5  -7  -5    0.60    5.00
   5  -7  -5   -0.20    4.20
  -5   7   5    6.00    6.00
  -2  -5   5    8.70    6.30
  -2  -5   5    5.80    4.60
  -7   3  -5    0.40    4.70
   3   4  -5    0.00    8.80
   4  -7  -5   -6.70    4.60
   4  -7  -5    3.10    3.80
   7  -3   5    5.60    3.30
   7  -3   5    5.90    2.20
  -3  -4   5    9.40    6.70
  -4   7   5    0.50    4.70
  -3  -4   5    6.60    4.50
  -7   4  -5    3.50    5.10
   3  -7  -5    4.50    4.60
   4   3  -5    2.80    8.70
   3  -7  -5    0.80    3.30
  -4  -3   5   -2.10    7.60
   7  -4   5   -3.80    4.10
  -3   7   5    5.50    3.40
  -4  -3   5    3.60    4.60
   7  -4   5    1.90    2.80
   2  -7  -5    5.90    2.90
   2  -7  -5    2.90    4.50
   5   2  -5   -0.10    5.50
  -5  -2   5    4.20    4.70
  -5  -2   5   -0.70    8.10
   7  -5   5   -3.80    3.30
   6   1  -5   21.50    5.90
   1  -7  -5   22.80    3.00
   1  -7  -5   23.70    4.70
  -6  -1   5   19.10    9.70
   7  -6   5   18.40    5.00
   7  -6   5   13.00    5.70
   7   0  -5    5.50    5.40
   0  -7  -5   -5.20    4.40
   0  -7  -5    2.20    2.50
   7  -7   5   -8.10    6.10
  -7   0   5   -9.40   10.70
  -1  -7  -5   -2.60    4.40
   8  -1  -5   -5.10    7.70
   8  -1  -5   -2.90    6.50
   7  -8   5    2.60    7.40
  -8   1   5    5.40   13.70
   8  -8  -5   17.50    7.60
   8  -8  -5   29.50    8.00
  -8   8   5   31.80   13.60
   0  -8   5   38.00    7.30
   7  -8  -5   -3.70    6.60
  -8   1  -5   -1.60    6.60
   7  -8  -5    1.00    6.40
   1   7  -5    6.00   10.10
  -1  -7   5   12.60    7.00
  -1  -7   5    2.00    6.90
  -7   8   5    6.40    9.80
   6  -8  -5   50.79    7.30
   2   6  -5   45.90   10.80
  -8   2  -5   55.29    7.10
   6  -8  -5   61.69    6.60
  -6   8   5   58.19    8.40
  -2  -6   5   58.69    8.00
  -2  -6   5   65.49    7.20
   5  -8  -5   24.30    5.20
   3   5  -5   25.70   11.00
   5  -8  -5   23.40    6.70
  -5   8   5   21.00    6.00
  -3  -5   5   20.70    5.80
  -3  -5   5   24.30    7.90
   8  -3   5   23.80    3.70
   8  -3   5   33.80    3.00
   4  -8  -5  -12.40    5.30
   4  -8  -5   -3.10    3.90
   8  -4   5   -2.30    2.90
  -4  -4   5    1.80    5.50
  -4  -4   5  -11.60    8.30
   8  -4   5    3.70    4.70
  -4   8   5    0.40    4.10
   3  -8  -5   31.70    4.20
   3  -8  -5   24.90    5.90
   8  -5   5   27.10    5.90
  -5  -3   5   35.80    6.20
   8  -5   5   25.50    4.00
  -5  -3   5   36.40   10.70
   2  -8  -5   46.50    6.30
   2  -8  -5   54.59    4.30
   6   2  -5   54.69    7.70
  -6  -2   5   53.99   11.40
   8  -6   5   44.50    7.10
   1  -8  -5    3.90    5.80
   1  -8  -5    7.60    3.40
   7   1  -5   -1.80    6.50
   8  -7   5    8.30    5.20
   8  -7   5  -12.40    7.20
  -7  -1   5   -8.50   12.20
   0  -8  -5   26.70    7.90
   8   0  -5   28.60    8.10
   8   0  -5   41.60    9.60
  -8   0   5   20.10   15.70
   8  -8   5   24.70    8.70
   8  -8   5   32.30    6.80
   6  -9  -5    3.60    6.10
   6  -9  -5   -1.80    7.40
  -3  -6   5   -4.30    7.80
  -3  -6   5    3.20    8.70
   5  -9  -5    7.20    5.30
   5  -9  -5  -10.80    7.00
  -4  -5   5   19.30    9.70
  -4  -5   5    4.40    7.00
   4  -9  -5    3.30    4.90
   4  -9  -5    4.30    6.80
   9  -5   5   -2.90    6.10
  -5  -4   5    2.70   10.60
  -5  -4   5    9.20    7.10
   3  -9  -5   -0.80    6.80
   3  -9  -5   -2.40    4.60
  -6  -3   5   -3.00   11.80
   9  -6   5   -7.70    6.80
   9  -6   5   -0.70    5.60
   0   0  -6   52.49    5.50
   0   0  -6   46.10    4.20
   0   0  -6   54.59    4.50
   0   0   6   55.89    5.00
   0   0   6   51.99    4.40
  -1   0  -6  300.67   11.20
   1  -1  -6  292.07    9.20
   0   1  -6  294.07    9.40
   1  -1  -6  271.77    8.80
   1  -1  -6  295.77   11.40
  -1   0  -6  291.87    8.80
  -1   0  -6  298.67    8.60
   0   1  -6  289.37   11.40
   0   1  -6  286.07    9.20
   0  -1   6  291.27    8.50
   1   0   6  294.97    8.60
   1   0   6  287.57   10.10
  -1   1   6  296.67    9.10
   0  -1   6  277.37   10.60
  -1   1   6  265.27   10.60
   0  -1   6  288.77    9.20
   1   0  -6  291.87    9.00
   1   0  -6  285.17   11.60
  -1   1  -6  282.07    8.90
   0  -1  -6  284.17   10.90
   1   0  -6  289.77    9.40
   0  -1  -6  285.47    8.80
   0  -1  -6  285.07    8.50
  -1   1  -6  285.47   11.20
   1  -1   6  285.77    8.20
  -1   0   6  290.07    9.30
   1  -1   6  286.17    8.80
  -1   0   6  302.27   10.90
   0   1   6  274.57   10.30
   1  -1   6  284.17   10.30
   2  -1  -6  768.62   20.40
  -1  -1  -6  822.82   22.00
   2  -1  -6  775.22   20.80
  -1   2  -6  769.82   20.40
  -1  -1  -6  740.63   19.70
  -1   2  -6  767.22   22.10
  -1  -1  -6  792.32   19.90
   2  -1  -6  812.12   22.80
   1  -2   6  781.92   20.20
   1  -2   6  783.02   21.70
   1  -2   6  780.72   20.60
   1   1   6  768.02   21.20
   1   1   6  763.82   19.70
  -2   1   6  793.72   22.20
  -2   1   6  793.12   20.70
   3  -2  -6  202.58   11.10
  -2  -1  -6  205.38    9.50
  -1   3  -6  192.58   10.40
   3  -2  -6  199.48    7.60
   3  -2  -6  192.38    8.00
  -2  -1  -6  196.78    6.20
  -1   3  -6  196.38    8.00
  -3   2   6  208.98    8.00
  -3   2   6  207.68   10.00
   1  -3   6  185.08    9.00
   2   1   6  190.28    5.70
   1  -3   6  209.98    8.20
   1  -3   6  181.78    7.30
   2  -2  -6  992.20   25.20
   0   2  -6  975.70   25.60
   0   2  -6  983.10   27.50
   2  -2  -6  992.00   27.40
  -2   0  -6  983.80   24.90
  -2   0  -6  993.50   27.00
   2  -2  -6  974.30   25.70
   0  -2   6 1006.50   26.90
   0  -2   6 1032.10   25.90
   2   0   6  997.30   26.20
  -2   2   6  978.80   26.90
   2   0   6  990.10   24.70
   0  -2   6  979.80   25.30
  -2   2   6 1030.00   25.50
  -2   1  -6  789.62   22.10
   1   1  -6  774.32   21.00
   1  -2  -6  790.72   22.20
  -2   1  -6  782.92   20.10
   1   1  -6  760.72   22.60
   1   1  -6  783.02   20.60
   1  -2  -6  791.22   20.50
   1  -2  -6  772.62   20.00
  -1  -1   6  778.12   20.20
  -1   2   6  752.12   21.50
   2  -1   6  797.02   21.40
   2  -1   6  788.82   19.40
  -1  -1   6  769.52   22.10
  -1   2   6  795.72   20.20
   2  -1   6  794.32   20.00
  -1  -1   6  786.62   20.80
   0  -2  -6 1010.80   25.20
   2   0  -6  987.90   27.90
   0  -2  -6  978.80   24.80
   0  -2  -6  982.00   27.00
  -2   2  -6 1017.50   27.30
   2   0  -6 1022.10   25.70
   2   0  -6  976.90   26.00
  -2   2  -6 1008.70   25.50
  -2   0   6 1006.20   25.90
   0   2   6  994.90   25.00
   0   2   6  987.60   26.30
   2  -2   6  987.80   26.50
   2  -2   6  998.30   25.00
  -2   0   6  990.80   27.40
   2  -2   6  985.50   25.40
  -2   3  -6  195.48    7.70
  -1  -2  -6  190.68    6.10
   3  -1  -6  186.18   11.30
   3  -1  -6  197.68    7.90
  -2   3  -6  202.48   10.00
  -1  -2  -6  212.58    9.30
  -1  -2  -6  193.58    6.30
   3  -1  -6  202.18    8.30
   2  -3   6  198.28    7.30
   1   2   6  196.68    6.10
   2  -3   6  210.58    7.90
  -3   1   6  193.98    8.20
  -3   1   6  191.08   10.50
   1   2   6  200.98    8.00
   2  -3   6  204.78    8.90
   4  -2  -6   15.70    4.60
   4  -2  -6   15.30    7.40
  -2   4  -6   19.50    5.70
  -2  -2  -6   16.40    2.10
  -2   4  -6   30.20    4.40
  -2  -2  -6   21.60    5.10
   4  -2  -6   14.70    4.00
   2  -4   6   19.20    3.60
  -4   2   6   19.70    6.80
  -4   2   6   14.70    4.20
   2  -4   6   20.00    4.50
  -2   5  -6  141.49   11.80
  -2   5  -6  148.99    8.30
   5  -3  -6  155.08    8.20
  -3  -2  -6  160.48    9.80
   5  -3  -6  164.98    8.50
  -3  -2  -6  152.78    5.20
   5  -3  -6  180.58   13.60
  -5   3   6  150.18    8.70
   2  -5   6  144.49    9.00
   2  -5   6  148.89    7.90
  -5   3   6  179.58   12.90
   2  -5   6  166.08    9.60
  -3  -1  -6  158.18    5.50
   4  -3  -6  162.88   11.60
   4  -3  -6  147.59   11.80
  -1   4  -6  152.08   10.70
  -1   4  -6  154.08    7.70
  -3  -1  -6  152.58    9.20
   4  -3  -6  158.28    7.30
  -4   3   6  172.28    8.00
   1  -4   6  154.18    8.40
  -4   3   6  155.98   10.50
   3  -3  -6  505.55   14.70
  -3   0  -6  502.55   16.10
   3  -3  -6  518.35   17.00
   0   3  -6  489.75   14.40
   3  -3  -6  495.45   14.00
   0   3  -6  499.35   16.80
  -3   0  -6  497.65   13.30
  -3   3   6  500.35   16.20
   0  -3   6  495.45   14.10
  -3   3   6  511.55   14.40
   0  -3   6  501.25   15.00
   3   0   6  471.85   12.50
   0  -3   6  518.75   15.90
  -3   1  -6  218.18   10.20
   1   2  -6  192.08   10.90
  -3   1  -6  199.58    7.10
   2  -3  -6  204.28   10.20
   1   2  -6  188.58    8.00
   2  -3  -6  198.18    7.80
   1   2  -6  206.48    8.70
  -1  -2   6  196.08    9.90
  -1  -2   6  195.88    7.40
  -2   3   6  206.68    7.50
   3  -1   6  200.48    6.30
  -2   3   6  183.68    9.10
  -1  -2   6  197.98    8.40
   2   1  -6  192.08    7.90
   1  -3  -6  191.68    9.50
   1  -3  -6  189.38    6.40
   2   1  -6  201.68   11.00
  -3   2  -6  203.18    7.40
  -3   2  -6  210.58   10.30
   1  -3  -6  200.28    7.40
   2   1  -6  208.68    8.40
   3  -2   6  211.88    6.50
  -1   3   6  193.08    7.00
  -2  -1   6  201.28    8.50
   3  -2   6  200.78    6.90
  -2  -1   6  178.08    9.90
  -2  -1   6  185.58    7.40
  -1   3   6  200.08    8.70
   3   0  -6  505.15   14.60
  -3   3  -6  501.95   16.30
   0  -3  -6  518.45   13.70
   0  -3  -6  488.35   13.00
   0  -3  -6  500.25   15.60
   3   0  -6  495.15   17.60
  -3   3  -6  499.45   14.20
   3   0  -6  485.05   14.80
   3  -3   6  494.75   13.80
   3  -3   6  501.75   14.30
   0   3   6  505.85   13.40
  -3   0   6  524.05   15.00
   0   3   6  498.45   14.70
   4  -1  -6  156.08   11.70
   4  -1  -6  152.48    7.90
  -3   4  -6  143.49    7.30
  -1  -3  -6  155.68    5.50
  -1  -3  -6  165.88    9.10
  -1  -3  -6  143.19    4.80
   4  -1  -6  149.49    8.00
  -3   4  -6  149.19   10.00
  -4   1   6  153.68   11.20
  -4   1   6  149.59    8.20
   3  -4   6  148.79    8.00
   3  -4   6  153.08    6.80
   5  -2  -6  172.58    8.60
  -2  -3  -6  154.38    4.90
   5  -2  -6  160.08   14.20
  -3   5  -6  148.59   11.50
   5  -2  -6  161.08    8.80
  -2  -3  -6  161.98    9.50
  -3   5  -6  145.49    8.00
   3  -5   6  170.88    7.80
   3  -5   6  174.68    9.50
  -5   2   6  163.68    8.90
  -5   2   6  171.88   13.20
  -3  -3  -6  296.97   12.70
  -3  -3  -6  290.87    8.10
  -3   6  -6  275.27   15.00
   6  -3  -6  320.47   11.90
  -6   3   6  333.57   18.00
   3  -6   6  318.17   11.70
   7  -4  -6   55.19    7.10
   7  -4  -6   60.39    7.50
  -4  -3  -6   58.09    7.40
  -4  -3  -6   58.39    4.30
   3  -7   6   50.19    6.60
  -7   4   6   59.59   13.20
  -2   6  -6  278.87   15.30
  -4  -2  -6  291.27    8.70
   6  -4  -6  299.27   12.30
   6  -4  -6  311.17   12.00
  -4  -2  -6  298.57   13.20
   2  -6   6  287.67   12.40
  -6   4   6  323.27   17.90
   2  -6   6  308.77   11.50
   5  -4  -6  326.87   12.00
  -1   5  -6  307.57   14.70
  -4  -1  -6  317.07   13.40
   5  -4  -6  318.17   16.00
  -4  -1  -6  321.47    9.30
  -1   5  -6  321.27   11.70
   5  -4  -6  318.47   11.20
  -5   4   6  323.57   15.30
   1  -5   6  314.07   12.50
  -5   4   6  335.87   11.90
   1  -5   6  327.47   11.30
   1  -5   6  313.57   12.60
   0   4  -6  527.75   18.60
  -4   0  -6  565.04   17.50
  -4   0  -6  532.35   14.30
   4  -4  -6  548.25   16.10
   4  -4  -6  549.25   19.00
   0   4  -6  519.45   16.00
   4  -4  -6  532.65   15.20
   0  -4   6  538.55   15.60
   0  -4   6  532.65   17.10
   0  -4   6  540.45   16.60
  -4   4   6  545.05   18.10
  -4   4   6  538.65   15.80
   1   3  -6  149.99    7.70
   3  -4  -6  143.99    7.60
  -4   1  -6  147.89    6.30
   1   3  -6  146.89   11.30
   3  -4  -6  164.98   10.40
  -4   1  -6  169.78   10.10
   4  -1   6  152.88    4.80
  -3   4   6  175.28    9.50
  -1  -3   6  122.19   10.80
  -1  -3   6  160.68    8.50
  -3   4   6  168.88    7.40
  -1  -3   6  146.29    7.40
   2  -4  -6   19.40    3.70
  -4   2  -6   21.40    3.30
   2   2  -6   23.90    7.20
   2   2  -6    8.80    3.90
   2   2  -6   15.90    4.40
  -4   2  -6   18.80    5.90
   2  -4  -6   24.40    5.50
   4  -2   6   16.70    2.60
  -2   4   6   18.30    4.50
  -2  -2   6   18.50    4.10
  -2   4   6   21.00    3.40
   4  -2   6   20.40    2.40
  -2  -2   6   13.20    5.30
   1  -4  -6  150.58    6.80
   3   1  -6  175.18   12.10
  -4   3  -6  157.58    7.00
   1  -4  -6  151.98    9.20
   3   1  -6  151.18    8.20
  -4   3  -6  178.78   10.40
   3   1  -6  152.88    7.80
  -1   4   6  144.29    7.70
   4  -3   6  165.78    6.50
  -3  -1   6  151.98   10.30
  -3  -1   6  152.88    8.40
  -3  -1   6  135.69   11.00
   4  -3   6  150.38    7.00
  -1   4   6  165.28    6.70
   0  -4  -6  548.95   16.80
   4   0  -6  527.95   16.10
   0  -4  -6  547.95   14.80
   4   0  -6  531.85   16.10
  -4   4  -6  515.65   18.10
  -4   4  -6  517.15   15.60
   4   0  -6  544.55   20.00
   4  -4   6  542.25   15.70
   4  -4   6  556.14   15.30
  -4   0   6  544.65   16.40
  -4   0   6  569.54   19.20
   0   4   6  550.64   15.50
  -1  -4  -6  321.77    9.30
  -4   5  -6  287.97   11.50
   5  -1  -6  320.37   11.70
   5  -1  -6  321.67   12.10
  -4   5  -6  304.67   14.40
  -1  -4  -6  321.27   12.30
  -5   1   6  326.97   16.40
   4  -5   6  355.76   11.50
   4  -5   6  321.27   12.30
  -2  -4  -6  298.47   12.50
   6  -2  -6  310.57   12.30
   4  -6   6  308.97   11.60
  -6   2   6  305.47   18.30
   4  -6   6  289.07   13.20
  -3  -4  -6   61.99    7.50
   7  -3  -6   66.79    7.30
   7  -3  -6   67.09    7.70
   4  -7   6   63.69    7.30
  -7   3   6   77.89   14.10
   8  -4  -6   -3.70    7.10
   8  -4  -6    5.90    7.40
   4  -8   6    3.90    7.20
  -8   4   6   -2.70   14.50
  -5  -3  -6   17.80    8.90
   8  -5  -6   27.30    7.90
   8  -5  -6   33.70    7.30
  -8   5   6   15.90   14.10
   3  -8   6   41.00    7.40
  -5  -2  -6   86.99    6.10
   7  -5  -6  108.39    8.40
   7  -5  -6   72.09    7.20
  -5  -2  -6   88.69    8.50
  -7   5   6  114.89   14.40
   2  -7   6   77.79    7.00
  -5  -1  -6   64.19    6.60
   6  -5  -6   52.69    6.10
   6  -5  -6   57.39    6.40
  -1   6  -6   56.69   10.30
   6  -5  -6   53.39    6.50
  -5  -1  -6   48.00    7.70
  -6   5   6   72.09   10.90
   1  -6   6   63.79    6.70
   1  -6   6   42.70    5.80
   5  -5  -6   91.99    9.80
   0   5  -6   97.59   10.10
  -5   0  -6  106.59    6.10
   5  -5  -6  125.39    8.40
  -5   0  -6   92.89    8.20
  -5   5   6  124.49   12.10
   0  -5   6   80.09    7.70
   0  -5   6   91.69    9.80
  -5   1  -6  311.17   13.90
  -5   1  -6  330.07   10.10
   4  -5  -6  323.97   14.70
   4  -5  -6  330.17   11.70
   1   4  -6  311.27   15.50
   1   4  -6  311.57   11.80
  -4   5   6  318.17   11.40
  -4   5   6  342.07   13.50
  -1  -4   6  304.37   13.50
  -1  -4   6  324.77   11.30
   3  -5  -6  168.98   10.80
   2   3  -6  177.98   13.20
  -5   2  -6  146.19   11.40
   3  -5  -6  171.98    8.50
  -5   2  -6  143.69    7.20
   5  -2   6  156.58    5.40
  -2  -3   6  153.48    9.30
  -3   5   6  168.18    9.20
  -2  -3   6  158.68   11.10
  -3   5   6  159.18    8.10
  -2  -3   6  159.18    7.90
   5  -2   6  163.48    5.10
   3   2  -6  162.98    9.10
   3   2  -6  161.38   13.80
   2  -5  -6  151.88    9.90
   2  -5  -6  159.58    7.80
  -5   3  -6  156.98    7.40
  -5   3  -6  160.78   12.50
   3   2  -6  145.59    8.70
  -3  -2   6  154.88    7.80
  -3  -2   6  162.28   11.50
   5  -3   6  155.28    6.50
  -2   5   6  150.98    8.30
   5  -3   6  161.18    6.90
  -3  -2   6  142.19    8.90
  -2   5   6  170.98    7.80
  -5   4  -6  315.57   11.10
   1  -5  -6  334.77   12.60
   1  -5  -6  325.97   10.70
   4   1  -6  297.27   11.70
   5  -4   6  322.97   10.70
  -4  -1   6  342.67   15.50
  -1   5   6  327.27   10.80
   5  -4   6  315.47   10.80
   0  -5  -6   99.89    9.70
  -5   5  -6  114.39    8.20
   5   0  -6  102.19    8.50
   0  -5  -6  102.39    6.30
   5  -5   6  105.59    8.90
  -5   0   6  140.19   11.70
  -1  -5  -6   58.69    6.60
   6  -1  -6   53.09    6.40
  -1  -5  -6   59.99    5.20
   5  -6   6   57.59    6.30
  -6   1   6   66.99   11.50
   5  -6   6   45.90    7.00
   7  -2  -6  109.19   10.00
  -2  -5  -6  118.69   10.30
  -7   2   6   93.39   13.50
   5  -7   6  111.79    8.40
   8  -3  -6   34.30    8.60
   8  -3  -6   21.00    7.60
   5  -8   6   33.30    7.90
  -8   3   6    3.50   13.90
   8  -6  -6   77.69    8.70
   8  -6  -6   99.99    9.30
  -8   6   6   95.59   16.60
   2  -8   6   88.79    8.90
   7  -6  -6   37.60    6.90
  -6  -1  -6   40.60    5.80
   7  -6  -6   60.09    7.30
   1  -7   6   37.20    6.90
  -7   6   6   52.09   12.80
   1  -7   6   43.00    7.10
  -6   0  -6   -0.10    4.30
   6  -6  -6   22.50    5.70
   6  -6  -6    8.80    6.10
   0   6  -6  -16.70    9.40
   0  -6   6   -0.80    6.20
  -6   6   6    2.80    9.00
   0  -6   6    4.60    5.40
  -6   1  -6   57.69    5.00
   5  -6  -6   57.99    5.90
   5  -6  -6   57.19    9.20
   5  -6  -6   51.69    6.10
   1   5  -6   55.49   10.40
  -1  -5   6   50.09    5.90
  -1  -5   6   40.80    7.20
   4  -6  -6  303.37   14.70
   2   4  -6  301.47   17.00
   4  -6  -6  293.17   11.40
  -6   2  -6  296.67   10.80
   4  -6  -6  304.67   12.10
  -2  -4   6  317.57   14.10
  -4   6   6  299.77   12.20
  -2  -4   6  290.87   11.40
  -4   6   6  304.07   13.00
   3  -6  -6  312.37   13.40
   3  -6  -6  307.27   11.70
   3  -6  -6  296.47   10.30
  -6   3  -6  300.07   11.30
   6  -3   6  294.77    8.80
  -3  -3   6  299.37   14.70
  -3  -3   6  286.57   11.70
  -3   6   6  310.67   11.70
   6  -3   6  302.97    9.40
   6  -3   6  310.37    9.30
   2  -6  -6  297.27   12.50
  -6   4  -6  272.87   11.60
   2  -6  -6  291.77   11.20
   2  -6  -6  291.87    9.50
  -2   6   6  300.97   10.50
  -4  -2   6  316.27   15.60
   6  -4   6  299.07   10.40
  -4  -2   6  312.37   11.10
   6  -4   6  271.87   10.30
   1  -6  -6   67.29    4.90
   1  -6  -6   52.29    6.80
   1  -6  -6   54.49    5.10
   5   1  -6   55.99    6.60
  -5  -1   6   62.59   10.80
   6  -5   6   51.59    5.90
   0  -6  -6    4.00    2.30
   6   0  -6    2.70    5.20
   0  -6  -6    1.20    4.10
   6  -6   6    4.80    5.80
  -6   0   6    8.50   10.90
   7  -1  -6   47.40    7.60
  -1  -6  -6   44.30    4.40
   6  -7   6   54.79    7.60
  -7   1   6   45.60   13.90
   8  -2  -6  106.19    9.60
   8  -2  -6   83.29    9.60
   6  -8   6  112.79    9.90
  -8   2   6   82.39   16.40
   7  -7  -6   58.99    7.90
   7  -7  -6   68.29    8.20
  -7   7   6   60.89   12.40
   0  -7   6   72.99    8.20
   0  -7   6   54.99    7.90
  -7   1  -6   49.00    6.20
   6  -7  -6   45.70    6.60
   6  -7  -6   36.40    7.20
  -1  -6   6   36.70    7.90
  -1  -6   6   46.80    6.60
  -6   7   6   50.89    9.70
   5  -7  -6   90.59    6.60
   5  -7  -6   98.39    7.90
  -7   2  -6  102.09    9.10
  -2  -5   6   78.09    7.10
  -2  -5   6   87.69    9.30
  -5   7   6   94.89    9.10
   4  -7  -6   61.59    5.70
   4  -7  -6   58.19    6.90
  -7   3  -6   50.19    6.20
  -3  -4   6   63.59    9.50
   7  -3   6   50.89    3.60
  -3  -4   6   42.90    6.10
  -4   7   6   57.09    6.50
   7  -3   6   57.69    3.90
   3  -7  -6   57.79    7.50
   3  -7  -6   55.09    4.90
   3  -7  -6   46.20    6.30
   7  -4   6   58.69    5.10
  -4  -3   6   70.19   10.50
  -3   7   6   51.89    5.40
   7  -4   6   59.39    4.60
   7  -4   6   54.89    4.00
  -4  -3   6   59.69    6.60
   2  -7  -6   82.49    6.90
   2  -7  -6   94.99    9.60
   2  -7  -6  105.39    6.30
   5   2  -6  104.69   10.40
  -5  -2   6  106.69   12.00
   7  -5   6   93.59    6.90
   7  -5   6   78.19    7.50
   1  -7  -6   48.70    6.20
   6   1  -6   35.60    6.80
   1  -7  -6   48.30    3.80
   7  -6   6   54.49    7.30
  -6  -1   6   54.29   11.90
   0  -7  -6   64.19    6.20
   7   0  -6   44.10    7.60
   7  -7   6   72.19    8.70
  -7   0   6   64.19   14.30
   6  -8  -6  103.49    8.10
   6  -8  -6   80.09    8.60
  -2  -6   6   92.39   10.30
  -6   8   6   97.59   10.70
  -2  -6   6   80.99    8.10
   5  -8  -6   21.70    7.50
   5  -8  -6   23.60    6.00
  -5   8   6   26.70    7.20
  -3  -5   6   21.50    7.00
  -3  -5   6   21.60    9.40
   4  -8  -6    1.00    6.80
   4  -8  -6    2.90    5.10
  -4  -4   6   -3.80    6.50
  -4  -4   6    8.60    9.60
  -4   8   6   -1.90    6.80
   3  -8  -6   31.50    6.00
   3  -8  -6   29.50    7.10
  -5  -3   6   19.20    6.90
  -5  -3   6   42.80   11.30
   8  -5   6   26.30    4.30
   2  -8  -6   96.99    8.50
   6   2  -6   99.29    9.70
  -6  -2   6   89.79   14.60
   8  -6   6  106.09    8.80
   8  -6   6   94.59    8.50
   0   0  -7    0.50    3.40
   0   0  -7    3.00    3.30
   0   0  -7    1.30    5.60
   0   0   7   -0.30    3.20
   0   0   7   -2.70    4.90
   0   1  -7   26.50    4.40
   0   1  -7   22.30    6.60
   1  -1  -7   15.50    3.80
   1  -1  -7   18.50    3.80
  -1   0  -7   26.80    6.50
  -1   0  -7   21.30    3.60
   0   1  -7   20.00    4.20
   1  -1  -7   35.60    6.50
   0  -1   7   19.50    4.00
   0  -1   7   23.10    5.40
   1   0   7   22.80    4.80
  -1   1   7   19.80    3.80
  -1   1   7    8.40    6.00
   0  -1   7   21.10    3.00
   1   0   7   15.60    3.20
   1   0  -7   19.20    4.10
   0  -1  -7   26.60    3.70
   1   0  -7    8.90    6.00
   1   0  -7   15.80    3.80
   0  -1  -7   19.70    5.70
  -1   1  -7   15.80    3.90
  -1   1  -7   21.00    6.10
   0  -1  -7   19.40    3.40
   0   1   7   22.60    7.90
  -1   0   7   26.40    4.10
  -1   0   7   25.90    5.90
   0   1   7   17.90    3.40
   1  -1   7   17.00    3.80
   1  -1   7   10.70    4.90
  -1  -1  -7   10.00    6.40
   2  -1  -7    0.80    3.90
  -1   2  -7   -3.40    6.60
   2  -1  -7   -1.80    6.70
   2  -1  -7   -4.00    3.80
  -1   2  -7    2.60    3.90
  -1  -1  -7    2.50    2.80
  -2   1   7    3.30    3.80
   1  -2   7   -1.90    3.70
   1  -2   7   -5.10    5.10
   1   1   7   -3.20    6.30
   1  -2   7   -0.30    3.00
  -2   1   7   -2.20    5.50
   3  -2  -7   16.90    4.40
  -2  -1  -7   15.20    3.00
  -1   3  -7    9.70    7.20
  -1   3  -7   13.00    4.50
   3  -2  -7   -1.00    7.10
  -2  -1  -7   17.80    6.40
   3  -2  -7   10.00    4.20
   1  -3   7   14.70    3.90
  -3   2   7    8.60    4.10
   1  -3   7   11.80    4.70
   1  -3   7   19.30    5.80
  -3   2   7   15.50    6.60
   2   1   7   11.80    2.20
   0   2  -7  203.48   12.50
   2  -2  -7  206.78    8.30
   2  -2  -7  219.38    9.30
  -2   0  -7  215.38   11.70
   2  -2  -7  209.78   12.40
  -2   0  -7  224.88    7.70
   0   2  -7  210.08    8.90
   2   0   7  217.28    7.10
   2   0   7  204.28    9.60
   0  -2   7  216.68    8.10
   0  -2   7  205.28   10.50
  -2   2   7  211.38    8.60
   0  -2   7  218.68    9.30
  -2   2   7  192.18   10.80
   1  -2  -7   -9.20    5.80
   1   1  -7    1.90    6.40
   1  -2  -7    1.30    3.20
  -2   1  -7   -2.90    3.20
   1  -2  -7    1.70    3.50
  -2   1  -7   -1.90    6.00
   1   1  -7   -5.00    4.10
   1   1  -7    1.00    4.10
  -1   2   7   -1.90    5.10
  -1  -1   7   -5.40    4.30
  -1  -1   7   -3.50    5.00
   2  -1   7    1.50    4.60
  -1  -1   7   -1.00    3.10
   2  -1   7   -2.70    3.00
  -1   2   7    0.60    3.20
  -2   2  -7  222.38    8.70
   2   0  -7  204.58   12.80
  -2   2  -7  189.48   12.20
   2   0  -7  200.18    8.80
   2   0  -7  186.98   11.80
   0  -2  -7  206.68    7.40
   0  -2  -7  208.48   11.70
   0  -2  -7  221.58    8.00
   2  -2   7  208.58    7.30
   2  -2   7  203.18    8.30
   0   2   7  212.58   10.10
   2  -2   7  215.88   10.10
  -2   0   7  224.68    9.40
   0   2   7  221.38    7.60
  -2   0   7  208.98   11.40
   3  -1  -7   14.10    4.70
  -1  -2  -7   26.40    6.70
   3  -1  -7   14.00    8.00
  -2   3  -7   10.60    4.40
   3  -1  -7    5.60    4.40
  -2   3  -7    6.30    6.50
  -1  -2  -7    8.30    2.90
  -1  -2  -7   15.80    2.90
   2  -3   7   13.90    5.20
  -3   1   7   11.80    6.60
   2  -3   7   10.20    4.40
   1   2   7   15.00    2.60
   2  -3   7   12.90    3.70
   1   2   7    9.30    4.70
  -3   1   7    8.40    4.60
  -2  -2  -7   11.70    6.50
  -2   4  -7    2.50    4.90
  -2  -2  -7    1.10    2.60
   4  -2  -7   -1.10    4.70
   4  -2  -7   -6.00    4.80
   2  -4   7    2.20    5.20
  -4   2   7   -3.40    7.10
  -4   2   7    6.30    7.40
   2  -4   7    0.10    4.20
   2  -4   7   -9.10    5.00
  -3  -2  -7    5.60    7.40
  -3  -2  -7    6.00    2.80
   5  -3  -7   10.90    8.30
   5  -3  -7    1.40    5.00
  -5   3   7   10.00    9.40
   2  -5   7   -3.10    4.90
   2  -5   7    6.20    6.00
   4  -3  -7   16.70    4.70
  -3  -1  -7   21.90    7.10
   4  -3  -7   16.10    4.90
   4  -3  -7   19.90    8.40
  -3  -1  -7   16.90    3.20
  -4   3   7   14.40    7.40
   1  -4   7   22.40    4.70
  -4   3   7   18.00    5.30
   1  -4   7   10.90    5.90
   1  -4   7   22.70    6.20
   3  -3  -7    2.30    3.90
   3  -3  -7   -6.80    7.20
   0   3  -7   -4.80    4.50
   3  -3  -7    1.60    4.40
   0   3  -7    0.90    8.30
  -3   0  -7   -2.70    6.50
  -3   0  -7    6.80    3.10
   0  -3   7   -7.40    3.80
  -3   3   7   -3.50    6.20
   0  -3   7   -7.60    5.70
   3   0   7   -2.40    1.90
  -3   3   7    1.40    4.20
   0  -3   7    5.70    5.20
   2  -3  -7   13.70    4.10
  -3   1  -7   17.90    3.60
   1   2  -7    6.10    7.70
  -3   1  -7   11.80    7.10
   2  -3  -7   11.10    3.60
   1   2  -7   15.90    4.90
   2  -3  -7   14.00    6.60
  -1  -2   7   16.20    4.70
  -2   3   7   15.40    8.70
  -2   3   7   15.00    3.90
   3  -1   7   12.40    2.90
  -1  -2   7   16.50    6.20
  -1  -2   7   15.10    3.90
   2   1  -7    6.40    4.30
   2   1  -7   16.00    4.80
   1  -3  -7   11.00    6.70
   1  -3  -7   10.40    3.70
  -3   2  -7    9.70    7.00
  -3   2  -7   15.30    4.00
   2   1  -7   15.30    7.20
  -2  -1   7    9.10    4.90
   3  -2   7   10.40    3.20
  -2  -1   7    8.80    6.50
  -1   3   7   13.70    5.20
  -1   3   7   14.00    3.50
   3  -2   7   12.70    2.50
   3   0  -7    0.70    4.70
   0  -3  -7   -3.30    6.00
  -3   3  -7    2.00    4.30
   3   0  -7    5.90    4.80
   0  -3  -7    1.50    3.20
   0  -3  -7    2.90    2.70
   3  -3   7   -3.40    3.30
   0   3   7   -2.10    2.70
  -3   0   7   -1.50    7.00
  -3   0   7   -6.00    4.80
   0   3   7    2.10    4.70
   3  -3   7   -8.20    3.70
  -1  -3  -7   10.20    2.80
   4  -1  -7   18.20    5.40
  -1  -3  -7   16.70    3.00
   4  -1  -7   13.30    5.40
  -1  -3  -7   13.20    6.40
  -3   4  -7   19.80    5.30
   3  -4   7   11.80    4.40
  -4   1   7   16.90    8.60
   3  -4   7   17.90    5.10
   5  -2  -7    3.90    5.00
  -2  -3  -7    9.20    2.40
  -2  -3  -7    1.20    7.10
   3  -5   7    5.60    6.60
  -5   2   7    2.80    9.40
   3  -5   7    3.10    4.80
  -3  -3  -7    5.50    8.00
   6  -3  -7   -6.10    6.30
   3  -6   7    3.50    5.90
  -6   3   7  -18.20   10.80
   7  -4  -7   19.40    7.70
   7  -4  -7    5.50    7.00
   3  -7   7   -1.20    7.10
  -7   4   7   -9.90   14.10
   6  -4  -7   40.50    6.70
   2  -6   7   50.39    7.80
  -6   4   7   51.09   12.00
   2  -6   7   63.49    6.90
   5  -4  -7    4.20    5.50
   5  -4  -7    6.00    5.70
   1  -5   7   -1.70    5.20
   1  -5   7   -7.70    6.30
  -5   4   7    4.90    9.30
  -4   0  -7   99.89    6.10
   4  -4  -7  106.59    7.80
   4  -4  -7   87.19    8.80
   4  -4  -7   87.59   10.10
  -4   4   7  116.59   12.30
   0  -4   7  104.79    7.70
  -4   4   7  108.09   10.10
   0  -4   7   82.89    7.90
  -4   1  -7   12.50    3.60
   3  -4  -7   18.50    5.10
   3  -4  -7   14.30    7.60
   3  -4  -7   23.00    4.20
   4  -1   7   13.70    2.20
  -3   4   7    3.20    4.70
  -3   4   7   16.80    6.40
  -1  -3   7   25.50    7.40
  -1  -3   7   16.20    4.40
   2  -4  -7    2.70    3.50
   2  -4  -7    0.20    6.80
   2  -4  -7   -3.30    4.10
   2   2  -7   -1.60    5.00
  -4   2  -7    0.60    3.70
   2   2  -7   -1.50    6.70
  -2  -2   7   -0.90    7.10
   4  -2   7    4.70    2.90
  -2   4   7   -2.00    3.90
  -2  -2   7   -8.00    4.10
  -2   4   7    3.00    5.40
   4  -2   7    0.00    1.90
   3   1  -7   15.20    5.10
   1  -4  -7   20.10    3.30
   1  -4  -7   16.00    4.00
  -4   3  -7   17.70    4.40
   1  -4  -7   12.60    6.90
  -1   4   7   20.10    3.70
  -3  -1   7   20.90    7.80
  -1   4   7   24.20    5.50
   4  -3   7   15.20    3.40
   4  -3   7   16.10    4.00
   0  -4  -7  111.09    6.60
   0  -4  -7   93.99    5.10
   0  -4  -7  111.59   10.90
  -4   4  -7   89.59    8.50
   4   0  -7  105.69    9.00
   4  -4   7  110.59    8.10
  -4   0   7   88.99    9.90
   0   4   7  101.19    8.30
   4  -4   7   94.09    7.30
   5  -1  -7   -1.60    5.50
  -1  -4  -7   -3.10    3.00
  -1  -4  -7    0.10    7.10
  -1  -4  -7   -1.00    2.40
   4  -5   7    0.60    5.10
  -5   1   7    3.10   10.40
   4  -5   7   -6.30    6.30
  -2  -4  -7   53.79    8.30
   6  -2  -7   49.60    7.20
   4  -6   7   42.90    6.70
  -6   2   7   39.40   11.60
   7  -3  -7   -3.20    7.40
  -3  -4  -7   10.70   10.50
   4  -7   7    4.20    7.20
  -7   3   7    0.00   13.60
   7  -5  -7    0.40    7.80
   7  -5  -7   -4.30    7.30
   2  -7   7  -12.10    7.20
  -7   5   7   -2.80   14.50
   2  -7   7    4.00    8.00
   6  -5  -7   -2.90    6.40
   6  -5  -7   -1.50    6.10
   1  -6   7   13.50    6.50
  -6   5   7   15.30   11.20
   1  -6   7   16.60    7.10
   5  -5  -7   -0.10    5.30
   5  -5  -7   -9.70    5.80
  -5   0  -7   -0.80    3.90
   0  -5   7    2.00    6.60
  -5   5   7    0.20    9.10
   0  -5   7    0.20    5.70
   4  -5  -7   -5.20    4.50
   4  -5  -7   -0.60    9.20
   4  -5  -7    2.30    5.70
  -5   1  -7    3.80    4.00
  -1  -4   7    0.90    5.20
  -4   5   7  -13.70    7.10
  -1  -4   7   -1.50    7.30
   3  -5  -7   14.20    7.90
  -5   2  -7    5.70    4.30
   3  -5  -7    0.10    4.00
   3  -5  -7    5.70    5.20
  -3   5   7    4.00    7.00
  -2  -3   7    3.10    5.00
  -3   5   7    5.50    5.20
   5  -2   7    6.30    2.40
  -2  -3   7   13.90    7.70
   2  -5  -7    4.90    4.70
  -5   3  -7    6.30    4.80
   2  -5  -7    7.20    7.20
   3   2  -7    7.60    5.40
  -2   5   7   10.10    5.60
  -2   5   7   -1.20    4.50
   5  -3   7    2.60    3.40
   5  -3   7    2.50    3.00
  -3  -2   7    6.80    8.30
  -3  -2   7    3.10    4.70
   1  -5  -7   15.00    7.20
   4   1  -7    3.60    6.00
   1  -5  -7    0.10    4.40
  -1   5   7    5.80    5.10
  -4  -1   7   -7.50    8.30
   5  -4   7    4.10    4.10
   5  -4   7   -7.10    4.20
   5   0  -7    0.80    6.00
   0  -5  -7    5.20    7.10
   0  -5  -7   -0.30    2.70
   0  -5  -7   -8.90    4.00
  -5   0   7    4.60   10.50
   5  -5   7   -9.30    5.10
   5  -5   7   -7.90    5.90
  -1  -5  -7    9.40    3.30
  -1  -5  -7   -6.10    7.70
   6  -1  -7   -3.30    6.50
  -6   1   7   -2.40   13.20
   5  -6   7    7.00    6.10
   7  -2  -7   -2.50    7.30
   5  -7   7    1.90    7.60
  -7   2   7   -4.50   14.80
   7  -6  -7   19.40    8.00
   7  -6  -7  -10.40    8.00
   1  -7   7    1.20    8.10
  -7   6   7   15.40   14.00
   1  -7   7    8.10    7.70
   6  -6  -7    2.70    6.90
   6  -6  -7   -3.10    7.40
   0  -6   7    5.60    6.80
  -6   6   7   14.20   11.00
   0  -6   7    4.50    7.70
   5  -6  -7    5.50    5.60
   5  -6  -7    2.30   12.80
   5  -6  -7    7.50    6.80
  -6   1  -7   10.70    5.20
  -1  -5   7    1.80    6.20
  -5   6   7    0.40    9.00
  -1  -5   7   11.20    7.80
  -6   2  -7   52.09    6.10
   4  -6  -7   45.20    9.60
   4  -6  -7   45.60    6.70
   4  -6  -7   51.49    5.80
  -2  -4   7   53.89    9.80
  -4   6   7   61.69    8.10
  -2  -4   7   54.59    6.80
   3  -6  -7    0.40    5.60
   3  -6  -7    0.90    8.30
  -6   3  -7   -5.70    5.50
   6  -3   7    1.40    3.20
   6  -3   7   -3.80    2.80
  -3  -3   7    0.70    8.70
  -3   6   7   -2.40    6.20
  -3  -3   7    3.40    5.70
   2  -6  -7   52.49    6.30
   2  -6  -7   52.49    8.40
   4   2  -7   50.89    7.80
   6  -4   7   52.99    4.90
  -4  -2   7   43.50   10.00
   6  -4   7   48.30    4.90
  -2   6   7   55.09    6.30
   1  -6  -7   14.90    5.50
   1  -6  -7   14.10    8.00
   5   1  -7    7.00    6.50
   6  -5   7   12.60    6.20
  -5  -1   7   15.00   10.60
   6  -5   7    7.10    5.80
   0  -6  -7    4.20    5.00
   6   0  -7   10.30    7.50
   6  -6   7    5.10    7.70
  -6   0   7   -4.80   12.50
   6  -6   7    1.80    6.50
   7  -1  -7   -4.00    7.30
   6  -7   7    5.20    8.30
  -7   1   7   -1.00   15.90
   6  -7  -7   12.60    8.50
   6  -7  -7    6.50    7.20
  -6   7   7    7.60   11.50
  -1  -6   7    9.30    9.20
  -1  -6   7   19.10    8.10
   5  -7  -7   -5.10    7.70
   5  -7  -7    2.40    6.10
  -7   2  -7   -1.50    8.30
  -2  -5   7  -10.60    7.00
  -5   7   7   -1.90    8.40
  -2  -5   7    1.50    9.80
   4  -7  -7   -2.20    7.10
   4  -7  -7   -4.50    5.70
  -3  -4   7    5.90   10.00
  -3  -4   7   -4.90    6.90
  -4   7   7    4.50    8.10
   3  -7  -7   -6.30    6.50
  -3   7   7    3.30    6.20
  -4  -3   7  -10.30   10.80
  -4  -3   7   10.50    6.90
   2  -7  -7    5.20    6.80
   2  -7  -7    2.80    4.10
   5   2  -7    2.10    7.00
  -5  -2   7   10.10   11.10
   7  -5   7    0.20    4.40
   6   1  -7    7.90    7.70
  -6  -1   7   15.20   14.30
   7  -6   7   -0.90    7.00
   0   0  -8  596.74   17.40
   0   0  -8  572.64   17.00
   0   0   8  582.44   17.10
   0   0   8  573.24   19.20
   1  -1  -8  164.88    9.60
  -1   0  -8  157.38    8.30
   1  -1  -8  163.28    8.80
   0   1  -8  159.28    9.10
   0  -1   8  173.58    9.90
  -1   1   8  175.48   11.50
  -1   1   8  146.19    9.00
   0  -1   8  169.98   11.30
   1   0   8  177.88    7.70
   1   0   8  159.18   10.50
  -1   1  -8  164.78    9.00
   1   0  -8  171.48    9.40
   0  -1  -8  175.68    8.80
   0  -1  -8  157.28    8.30
   1   0  -8  180.08    9.90
   0   1   8  150.38    8.10
   1  -1   8  168.68    8.80
   0   1   8  179.78   11.10
   1  -1   8  165.38   11.10
  -1   0   8  154.68   11.70
  -1   0   8  186.28    9.50
   2  -1  -8   66.49    6.10
  -1  -1  -8   77.39    6.90
  -1   2  -8   56.39    6.10
   2  -1  -8   72.19    6.70
  -1  -1  -8   67.49    5.10
   1  -2   8   49.40    5.90
   1  -2   8   64.09    6.10
   1  -2   8   72.29    8.00
  -2   1   8   59.79    8.30
   1   1   8   57.79    4.30
  -2   1   8   57.49    6.30
   1   1   8   72.09    7.60
  -2  -1  -8  136.09    7.30
   3  -2  -8  137.99    9.90
   3  -2  -8  144.19    9.70
   2   1   8  127.79    5.80
   1  -3   8  129.29   10.60
  -3   2   8  150.88   13.50
   1  -3   8  121.19   11.50
   2  -2  -8   35.60    5.80
   0   2  -8   27.90    6.90
  -2   0  -8   27.70    4.70
   2  -2  -8   30.50    5.50
   2   0   8   33.30    3.70
   2   0   8   29.90    6.60
   0  -2   8   28.70    6.10
  -2   2   8   29.60    5.40
   0  -2   8   20.80    6.80
   0  -2   8   32.40    4.60
  -2   2   8   31.60    7.90
  -2   1  -8   54.49    5.50
   1  -2  -8   67.59    5.80
   1   1  -8   53.79    6.40
   1  -2  -8   55.09    5.40
   1   1  -8   67.29    6.70
  -1  -1   8   66.89    8.60
  -1   2   8   53.69    7.40
  -1   2   8   55.09    5.30
   2  -1   8   69.19    7.50
   2  -1   8   62.59    5.00
  -1  -1   8   52.59    6.40
   0  -2  -8   32.50    4.50
  -2   2  -8   27.70    5.50
   0  -2  -8   33.60    4.80
   2   0  -8   38.10    6.10
   0  -2  -8   16.10    9.10
   2   0  -8   28.00    5.70
   2  -2   8   29.90    5.00
   0   2   8   41.10    4.20
   0   2   8   34.10    7.00
   2  -2   8   37.10    3.70
  -2   0   8   30.10    7.60
   2  -2   8   37.70    7.30
  -1  -2  -8  129.79    7.40
  -1  -2  -8  155.48    7.40
   3  -1  -8  156.98   14.20
   3  -1  -8  121.59   10.60
  -3   1   8  134.69   13.60
   2  -3   8  132.79   10.90
   1   2   8  159.68   11.00
   2  -3   8  142.59    7.70
   2  -3   8  133.59    9.70
   1   2   8  122.79    6.40
   4  -2  -8  337.57   14.20
   2  -4   8  317.47   12.20
  -4   2   8  315.47   17.80
   2  -4   8  314.77   15.10
   5  -3  -8   64.09    7.90
   2  -5   8   50.89    8.40
  -5   3   8   69.49   11.90
   2  -5   8   70.59    7.30
  -3  -1  -8  110.29    7.20
   4  -3  -8  111.99   10.70
   1  -4   8  111.59    9.30
  -4   3   8  108.09   11.40
   1  -4   8   84.79    8.80
   3  -3  -8   68.29    7.00
  -3   0  -8   59.69    5.20
   3  -3  -8   60.99    6.10
   0  -3   8   40.40    8.20
  -3   3   8   41.30    8.60
   0  -3   8   49.60    5.80
   3   0   8   57.29    4.30
   2  -3  -8  128.09    9.80
   2  -3  -8  132.39    8.60
  -3   1  -8  137.19    8.30
  -1  -2   8  124.19   11.70
  -1  -2   8  136.79    8.60
  -2   3   8  140.59    9.10
   3  -1   8  129.49    6.70
  -2   3   8  141.09   12.10
   1  -3  -8  130.99    8.20
   1  -3  -8  139.09    9.00
  -3   2  -8  153.98    9.00
   1  -3  -8  131.89   14.30
   2   1  -8  144.89   10.90
  -2  -1   8  147.39   13.20
   3  -2   8  128.69    7.70
  -1   3   8  136.09   11.50
  -1   3   8  135.19    8.10
   0  -3  -8   62.89    5.00
  -3   3  -8   63.59    9.30
   0  -3  -8   50.39    9.30
   0  -3  -8   63.39    5.20
   3   0  -8   54.49    7.10
  -3   0   8   72.29   10.10
   0   3   8   57.29    7.40
   3  -3   8   54.19    5.90
   3  -3   8   58.49    4.80
   0   3   8   64.09    6.40
  -1  -3  -8   86.89   10.30
  -1  -3  -8  100.59    6.60
   4  -1  -8  112.69    8.60
  -1  -3  -8  115.19    6.80
   3  -4   8  104.99   10.20
  -4   1   8   94.69   11.20
   3  -4   8  114.59    9.90
   5  -2  -8   65.59    8.30
  -5   2   8   74.29   12.60
   3  -5   8   64.49    7.00
   6  -3  -8    8.20    7.60
  -6   3   8   -2.50   13.40
   3  -6   8   11.90    7.40
   6  -4  -8   12.70    7.70
  -6   4   8    2.30   13.50
   2  -6   8   15.10    7.90
   2  -6   8    8.80    9.10
   5  -4  -8   16.40    7.10
  -5   4   8   34.30   11.80
   1  -5   8   26.20    7.10
   1  -5   8   32.60    9.10
  -4   0  -8   15.90    4.70
   4  -4  -8   21.60    6.80
   4  -4  -8   12.20    6.50
   0  -4   8   17.10    6.20
   0  -4   8   27.20    9.00
  -4   4   8   21.60    9.20
  -4   1  -8  104.99    8.20
   3  -4  -8  117.09    9.90
   3  -4  -8   97.99    8.90
  -1  -3   8   95.39    9.90
  -3   4   8  108.49    9.80
  -1  -3   8  101.59    9.40
   2  -4  -8  328.77   12.70
   2  -4  -8  280.47   11.40
  -4   2  -8  296.47   12.10
   2  -4  -8  314.37   18.30
  -2  -2   8  317.67   16.60
  -2   4   8  343.87   14.90
   4  -2   8  297.27   10.20
  -2   4   8  318.57   12.30
  -2  -2   8  305.47   11.90
   3   1  -8  110.69    8.90
   1  -4  -8   78.59   10.50
   1  -4  -8   96.59    7.50
   1  -4  -8  116.59    9.10
   4  -3   8  118.89    6.20
   4  -3   8  103.49    8.90
  -1   4   8  115.39    7.80
  -1   4   8   99.79   10.90
  -3  -1   8   86.09   10.90
   0  -4  -8   20.20    5.00
   0  -4  -8    8.20    9.40
   4   0  -8   16.90    7.20
  -4   0   8    2.60   10.40
   4  -4   8   21.20    6.00
   4  -4   8   19.20    5.10
   0   4   8   29.00    7.20
   5  -1  -8   24.40    7.10
  -1  -4  -8   27.90    9.70
   4  -5   8   27.70    6.20
  -5   1   8   20.60   11.70
   6  -2  -8   24.70    8.50
  -6   2   8    5.00   13.70
   4  -6   8   18.70    7.40
   5  -5  -8   44.80    8.30
   0  -5   8   49.50    9.90
   0  -5   8   53.39    8.00
  -5   5   8   72.29   12.20
   4  -5  -8   31.50    7.40
   4  -5  -8   24.60    6.80
  -5   1  -8   21.90    5.60
  -1  -4   8   40.20    7.10
  -1  -4   8   23.60   10.00
  -4   5   8   30.50    9.00
   3  -5  -8   51.79    6.50
   3  -5  -8   73.69    7.50
  -5   2  -8   58.09    6.60
  -2  -3   8   68.29    7.40
  -2  -3   8   59.59   10.00
  -3   5   8   60.99    9.10
   2  -5  -8   50.29   10.80
   2  -5  -8   63.19    6.30
   2  -5  -8   72.89    7.20
   3   2  -8   60.29    8.20
  -2   5   8   75.69    8.60
  -2   5   8   60.99    6.60
  -3  -2   8   86.29   11.80
   1  -5  -8   32.30    6.00
   4   1  -8    8.50    6.90
   1  -5  -8   35.70   10.40
  -4  -1   8   30.20   11.50
  -1   5   8   23.30    6.90
   5  -4   8   32.40    4.80
   5   0  -8   62.29    8.80
   0  -5  -8   62.99    6.30
   5  -5   8   39.70    7.00
   5  -5   8   45.90    6.50
  -5   0   8   48.60   12.40
   4  -6  -8    7.10    8.10
  -2  -4   8    7.60    7.50
  -4   6   8   23.70    9.30
  -2  -4   8   14.20   10.60
   3  -6  -8    8.00    7.80
  -3  -3   8   17.00   11.10
  -3   6   8   13.10    8.20
  -3  -3   8    8.70    7.20
   2  -6  -8   17.00    7.10
   4   2  -8   16.30    8.90
  -4  -2   8    4.30   11.70
  -2   6   8   15.40    7.30
   0   0  -9    3.10    6.40
   0   0   9    5.10    8.00
   0   0   9    2.70    5.70
  -1   0  -9    1.00    5.70
   1  -1  -9    5.80    6.50
   1  -1  -9   19.00    6.50
   0  -1   9    7.90    8.30
  -1   1   9   -1.20    8.30
   1   0   9   11.10    5.00
  -1   1   9    3.80    6.00
   1   0   9    8.90    7.50
   1   0  -9   -4.50    6.40
   0  -1  -9   -9.70   10.40
   0  -1  -9   -1.80    6.00
   1  -1   9    0.30    5.80
   0   1   9   -3.50    4.80
  -1   0   9    5.80    8.60
   1  -1   9    4.40    8.10
   0   1   9    4.00    7.90
  -1  -1  -9    1.70    5.60
   2  -1  -9   -2.00    6.90
  -2   1   9   -0.90    8.90
   1  -2   9  -12.40    8.30
   1   1   9   -0.40    8.00
   3  -2  -9    3.40    7.40
   1  -3   9   -1.70    9.10
   1  -3   9    8.70    5.20
  -3   2   9    0.70   10.20
   2  -2  -9   32.20    7.10
   2  -2  -9   29.50    7.10
  -2   0  -9   33.20    6.10
   0  -2   9   37.50    9.60
  -2   2   9   32.60    9.80
  -2   1  -9    8.50    6.30
   1  -2  -9    1.00    6.40
   1  -2  -9    2.90    6.10
  -1   2   9    6.30    8.90
  -1   2   9   -3.40    5.90
   2  -1   9    3.00    7.90
   2  -1   9   -5.40    4.60
  -1  -1   9    1.40    9.10
   2   0  -9   21.60    7.50
   0  -2  -9   40.90    6.30
   0  -2  -9   24.20    6.00
   0   2   9   30.70    4.90
   0   2   9   27.50    8.40
  -2   0   9   18.40   10.00
   2  -2   9   19.70    6.70
   2  -2   9   36.60    8.20
   3  -1  -9   18.30    8.00
   2  -3   9    1.90    4.70
   2  -3   9    1.70    9.10
   1   2   9   21.70    8.80
  -3   1   9    6.40   10.70
   4  -2  -9    0.30    8.40
   2  -4   9    1.70    6.00
   2  -4   9   -2.60    9.30
  -4   2   9   -2.90   11.70
   4  -3  -9   -1.40    8.40
  -4   3   9    0.00   11.10
   1  -4   9    3.60    9.20
   1  -4   9   -9.40    6.40
  -3   0  -9    6.10    6.30
   3  -3  -9    2.90    7.50
   0  -3   9    0.50    5.70
   0  -3   9   -1.00    9.30
  -3   3   9    8.70   10.50
  -3   1  -9    1.30    6.30
   2  -3  -9    6.20    7.00
   2  -3  -9   -2.80    6.70
  -1  -2   9   -2.90   10.00
  -2   3   9   -0.90    9.20
   1  -3  -9    9.00    6.00
   1  -3  -9    7.80    6.40
   2   1  -9   -4.80    7.60
  -1   3   9    2.20    8.90
  -2  -1   9   10.50    9.90
  -1   3   9    6.30    5.20
   3   0  -9   -4.30    8.10
   0  -3  -9   -8.20    5.70
   0   3   9   -1.30    8.20
   3  -3   9   13.00    7.10
  -3   0   9    2.70   11.20
   4  -1  -9    6.70    8.90
   3  -4   9   12.30    5.50
  -4   1   9   -8.90   12.20
  -4   1  -9    5.40    6.50
   3  -4  -9   -4.00    8.70
   3  -4  -9   -8.50    8.20
  -3   4   9   -7.50   10.20
  -1  -3   9   -0.50   10.70
  -1  -3   9    4.20    6.50
   2  -4  -9   -8.90    7.40
  -2  -2   9    7.00   10.80
  -2   4   9   -0.40    9.30
   3   1  -9   -1.50    8.90
   1  -4  -9    2.60    6.50
  -1   4   9    2.20    8.70
  -3  -1   9  -12.00   11.90
   0   0   0    0.00    0.00

_computing_structure_solution     'SHELXT 2014/5 (Sheldrick, 2014)'
;
_shelx_hkl_checksum   99598

